<?xml version="1.0" ?>
<routes xmlns:xsi="http://www.w3.org/2001/XMLSchema-instance" xsi:noNamespaceSchemaLocation="http://sumo.dlr.de/xsd/routes_file.xsd">
    <vehicle id="6000" type="passenger" depart="10.00" departSpeed="max">
        <route edges="203315542#0 -474788300#0 -317319509 -317319505 476442145 -317032950 -203315546#4 -203315546#3 -203315546#2 -203315546#1 -203315546#0 -478048074#1 255180004 317319500#0 317319500#1 475421740 317319496#4 474735871 197557009 474735872#0 474735872#1 474733651#0 474733651#1 474733651#2 475037306#0 475037306#1 475037306#2 475037306#3 475037306#4 475037306#5 475037306#6 475037306#7 474788300#0 -203315542#0 62080970#5 62080970#6 62080970#8 62080970#10 62080970#11 62080970#12  "/>
    </vehicle>
    <vehicle id="6001" type="passenger" depart="11.00" departSpeed="max">
        <route edges="203315542#0 -474788300#0 -317319509 -317319505 476442145 -317032950 -203315546#4 -203315546#3 -203315546#2 -203315546#1 -203315546#0 -478048074#1 255180004 317319500#0 317319500#1 475421740 317319496#4 474735871 197557009 474735872#0 474735872#1 474733651#0 474733651#1 474733651#2 475037306#0 475037306#1 475037306#2 475037306#3 475037306#4 475037306#5 475037306#6 475037306#7 474788300#0 -203315542#0 62080970#5 62080970#6 62080970#8 62080970#10 62080970#11 62080970#12  "/>
    </vehicle>
    <vehicle id="6002" type="passenger" depart="12.00" departSpeed="max">
        <route edges="203315542#0 -474788300#0 -317319509 -317319505 476442145 -317032950 -203315546#4 -203315546#3 -203315546#2 -203315546#1 -203315546#0 -478048074#1 255180004 317319500#0 317319500#1 475421740 317319496#4 474735871 197557009 474735872#0 474735872#1 474733651#0 474733651#1 474733651#2 475037306#0 475037306#1 475037306#2 475037306#3 475037306#4 475037306#5 475037306#6 475037306#7 474788300#0 -203315542#0 62080970#5 62080970#6 62080970#8 62080970#10 62080970#11 62080970#12  "/>
    </vehicle>
    <vehicle id="6003" type="passenger" depart="13.00" departSpeed="max">
        <route edges="203315542#0 -474788300#0 -317319509 -317319505 476442145 -317032950 -203315546#4 -203315546#3 -203315546#2 -203315546#1 -203315546#0 -478048074#1 255180004 317319500#0 317319500#1 475421740 317319496#4 474735871 197557009 474735872#0 474735872#1 474733651#0 474733651#1 474733651#2 475037306#0 475037306#1 475037306#2 475037306#3 475037306#4 475037306#5 475037306#6 475037306#7 474788300#0 -203315542#0 62080970#5 62080970#6 62080970#8 62080970#10 62080970#11 62080970#12  "/>
    </vehicle>
    <vehicle id="6004" type="passenger" depart="14.00" departSpeed="max">
        <route edges="203315542#0 -474788300#0 -317319509 -317319505 476442145 -317032950 -203315546#4 -203315546#3 -203315546#2 -203315546#1 -203315546#0 -478048074#1 255180004 317319500#0 317319500#1 475421740 317319496#4 474735871 197557009 474735872#0 474735872#1 474733651#0 474733651#1 474733651#2 475037306#0 475037306#1 475037306#2 475037306#3 475037306#4 475037306#5 475037306#6 475037306#7 474788300#0 -203315542#0 62080970#5 62080970#6 62080970#8 62080970#10 62080970#11 62080970#12  "/>
    </vehicle>
    <vehicle id="6005" type="passenger" depart="15.00" departSpeed="max">
        <route edges="203315542#0 -474788300#0 -317319509 -317319505 476442145 -317032950 -203315546#4 -203315546#3 -203315546#2 -203315546#1 -203315546#0 -478048074#1 255180004 317319500#0 317319500#1 475421740 317319496#4 474735871 197557009 474735872#0 474735872#1 474733651#0 474733651#1 474733651#2 475037306#0 475037306#1 475037306#2 475037306#3 475037306#4 475037306#5 475037306#6 475037306#7 474788300#0 -203315542#0 62080970#5 62080970#6 62080970#8 62080970#10 62080970#11 62080970#12  "/>
    </vehicle>
    <vehicle id="6006" type="passenger" depart="16.00" departSpeed="max">
        <route edges="203315542#0 -474788300#0 -317319509 -317319505 476442145 -317032950 -203315546#4 -203315546#3 -203315546#2 -203315546#1 -203315546#0 -478048074#1 255180004 317319500#0 317319500#1 475421740 317319496#4 474735871 197557009 474735872#0 474735872#1 474733651#0 474733651#1 474733651#2 475037306#0 475037306#1 475037306#2 475037306#3 475037306#4 475037306#5 475037306#6 475037306#7 474788300#0 -203315542#0 62080970#5 62080970#6 62080970#8 62080970#10 62080970#11 62080970#12  "/>
    </vehicle>
    <vehicle id="6007" type="passenger" depart="17.00" departSpeed="max">
        <route edges="203315542#0 -474788300#0 -317319509 -317319505 476442145 -317032950 -203315546#4 -203315546#3 -203315546#2 -203315546#1 -203315546#0 -478048074#1 255180004 317319500#0 317319500#1 475421740 317319496#4 474735871 197557009 474735872#0 474735872#1 474733651#0 474733651#1 474733651#2 475037306#0 475037306#1 475037306#2 475037306#3 475037306#4 475037306#5 475037306#6 475037306#7 474788300#0 -203315542#0 62080970#5 62080970#6 62080970#8 62080970#10 62080970#11 62080970#12  "/>
    </vehicle>
    <vehicle id="6008" type="passenger" depart="18.00" departSpeed="max">
        <route edges="203315542#0 -474788300#0 -317319509 -317319505 476442145 -317032950 -203315546#4 -203315546#3 -203315546#2 -203315546#1 -203315546#0 -478048074#1 255180004 317319500#0 317319500#1 475421740 317319496#4 474735871 197557009 474735872#0 474735872#1 474733651#0 474733651#1 474733651#2 475037306#0 475037306#1 475037306#2 475037306#3 475037306#4 475037306#5 475037306#6 475037306#7 474788300#0 -203315542#0 62080970#5 62080970#6 62080970#8 62080970#10 62080970#11 62080970#12  "/>
    </vehicle>
    <vehicle id="6009" type="passenger" depart="19.00" departSpeed="max">
        <route edges="203315542#0 -474788300#0 -317319509 -317319505 476442145 -317032950 -203315546#4 -203315546#3 -203315546#2 -203315546#1 -203315546#0 -478048074#1 255180004 317319500#0 317319500#1 475421740 317319496#4 474735871 197557009 474735872#0 474735872#1 474733651#0 474733651#1 474733651#2 475037306#0 475037306#1 475037306#2 475037306#3 475037306#4 475037306#5 475037306#6 475037306#7 474788300#0 -203315542#0 62080970#5 62080970#6 62080970#8 62080970#10 62080970#11 62080970#12  "/>
    </vehicle>
    <vehicle id="6010" type="passenger" depart="20.00" departSpeed="max">
        <route edges="203315542#0 -474788300#0 -317319509 -317319505 476442145 -317032950 -203315546#4 -203315546#3 -203315546#2 -203315546#1 -203315546#0 -478048074#1 255180004 317319500#0 317319500#1 475421740 317319496#4 474735871 197557009 474735872#0 474735872#1 474733651#0 474733651#1 474733651#2 475037306#0 475037306#1 475037306#2 475037306#3 475037306#4 475037306#5 475037306#6 475037306#7 474788300#0 -203315542#0 62080970#5 62080970#6 62080970#8 62080970#10 62080970#11 62080970#12  "/>
    </vehicle>
    <vehicle id="6011" type="passenger" depart="21.00" departSpeed="max">
        <route edges="203315542#0 -474788300#0 -317319509 -317319505 476442145 -317032950 -203315546#4 -203315546#3 -203315546#2 -203315546#1 -203315546#0 -478048074#1 255180004 317319500#0 317319500#1 475421740 317319496#4 474735871 197557009 474735872#0 474735872#1 474733651#0 474733651#1 474733651#2 475037306#0 475037306#1 475037306#2 475037306#3 475037306#4 475037306#5 475037306#6 475037306#7 474788300#0 -203315542#0 62080970#5 62080970#6 62080970#8 62080970#10 62080970#11 62080970#12  "/>
    </vehicle>
    <vehicle id="6012" type="passenger" depart="22.00" departSpeed="max">
        <route edges="203315542#0 -474788300#0 -317319509 -317319505 476442145 -317032950 -203315546#4 -203315546#3 -203315546#2 -203315546#1 -203315546#0 -478048074#1 255180004 317319500#0 317319500#1 475421740 317319496#4 474735871 197557009 474735872#0 474735872#1 474733651#0 474733651#1 474733651#2 475037306#0 475037306#1 475037306#2 475037306#3 475037306#4 475037306#5 475037306#6 475037306#7 474788300#0 -203315542#0 62080970#5 62080970#6 62080970#8 62080970#10 62080970#11 62080970#12  "/>
    </vehicle>
    <vehicle id="6013" type="passenger" depart="23.00" departSpeed="max">
        <route edges="203315542#0 -474788300#0 -317319509 -317319505 476442145 -317032950 -203315546#4 -203315546#3 -203315546#2 -203315546#1 -203315546#0 -478048074#1 255180004 317319500#0 317319500#1 475421740 317319496#4 474735871 197557009 474735872#0 474735872#1 474733651#0 474733651#1 474733651#2 475037306#0 475037306#1 475037306#2 475037306#3 475037306#4 475037306#5 475037306#6 475037306#7 474788300#0 -203315542#0 62080970#5 62080970#6 62080970#8 62080970#10 62080970#11 62080970#12  "/>
    </vehicle>
    <vehicle id="6014" type="passenger" depart="24.00" departSpeed="max">
        <route edges="203315542#0 -474788300#0 -317319509 -317319505 476442145 -317032950 -203315546#4 -203315546#3 -203315546#2 -203315546#1 -203315546#0 -478048074#1 255180004 317319500#0 317319500#1 475421740 317319496#4 474735871 197557009 474735872#0 474735872#1 474733651#0 474733651#1 474733651#2 475037306#0 475037306#1 475037306#2 475037306#3 475037306#4 475037306#5 475037306#6 475037306#7 474788300#0 -203315542#0 62080970#5 62080970#6 62080970#8 62080970#10 62080970#11 62080970#12  "/>
    </vehicle>
    <vehicle id="6015" type="passenger" depart="25.00" departSpeed="max">
        <route edges="203315542#0 -474788300#0 -317319509 -317319505 476442145 -317032950 -203315546#4 -203315546#3 -203315546#2 -203315546#1 -203315546#0 -478048074#1 255180004 317319500#0 317319500#1 475421740 317319496#4 474735871 197557009 474735872#0 474735872#1 474733651#0 474733651#1 474733651#2 475037306#0 475037306#1 475037306#2 475037306#3 475037306#4 475037306#5 475037306#6 475037306#7 474788300#0 -203315542#0 62080970#5 62080970#6 62080970#8 62080970#10 62080970#11 62080970#12  "/>
    </vehicle>
    <vehicle id="6016" type="passenger" depart="26.00" departSpeed="max">
        <route edges="203315542#0 -474788300#0 -317319509 -317319505 476442145 -317032950 -203315546#4 -203315546#3 -203315546#2 -203315546#1 -203315546#0 -478048074#1 255180004 317319500#0 317319500#1 475421740 317319496#4 474735871 197557009 474735872#0 474735872#1 474733651#0 474733651#1 474733651#2 475037306#0 475037306#1 475037306#2 475037306#3 475037306#4 475037306#5 475037306#6 475037306#7 474788300#0 -203315542#0 62080970#5 62080970#6 62080970#8 62080970#10 62080970#11 62080970#12  "/>
    </vehicle>
    <vehicle id="6017" type="passenger" depart="27.00" departSpeed="max">
        <route edges="203315542#0 -474788300#0 -317319509 -317319505 476442145 -317032950 -203315546#4 -203315546#3 -203315546#2 -203315546#1 -203315546#0 -478048074#1 255180004 317319500#0 317319500#1 475421740 317319496#4 474735871 197557009 474735872#0 474735872#1 474733651#0 474733651#1 474733651#2 475037306#0 475037306#1 475037306#2 475037306#3 475037306#4 475037306#5 475037306#6 475037306#7 474788300#0 -203315542#0 62080970#5 62080970#6 62080970#8 62080970#10 62080970#11 62080970#12  "/>
    </vehicle>
    <vehicle id="6018" type="passenger" depart="28.00" departSpeed="max">
        <route edges="203315542#0 -474788300#0 -317319509 -317319505 476442145 -317032950 -203315546#4 -203315546#3 -203315546#2 -203315546#1 -203315546#0 -478048074#1 255180004 317319500#0 317319500#1 475421740 317319496#4 474735871 197557009 474735872#0 474735872#1 474733651#0 474733651#1 474733651#2 475037306#0 475037306#1 475037306#2 475037306#3 475037306#4 475037306#5 475037306#6 475037306#7 474788300#0 -203315542#0 62080970#5 62080970#6 62080970#8 62080970#10 62080970#11 62080970#12  "/>
    </vehicle>
    <vehicle id="6019" type="passenger" depart="29.00" departSpeed="max">
        <route edges="203315542#0 -474788300#0 -317319509 -317319505 476442145 -317032950 -203315546#4 -203315546#3 -203315546#2 -203315546#1 -203315546#0 -478048074#1 255180004 317319500#0 317319500#1 475421740 317319496#4 474735871 197557009 474735872#0 474735872#1 474733651#0 474733651#1 474733651#2 475037306#0 475037306#1 475037306#2 475037306#3 475037306#4 475037306#5 475037306#6 475037306#7 474788300#0 -203315542#0 62080970#5 62080970#6 62080970#8 62080970#10 62080970#11 62080970#12  "/>
    </vehicle>
    <vehicle id="6020" type="passenger" depart="30.00" departSpeed="max">
        <route edges="203315542#0 -474788300#0 -317319509 -317319505 476442145 -317032950 -203315546#4 -203315546#3 -203315546#2 -203315546#1 -203315546#0 -478048074#1 255180004 317319500#0 317319500#1 475421740 317319496#4 474735871 197557009 474735872#0 474735872#1 474733651#0 474733651#1 474733651#2 475037306#0 475037306#1 475037306#2 475037306#3 475037306#4 475037306#5 475037306#6 475037306#7 474788300#0 -203315542#0 62080970#5 62080970#6 62080970#8 62080970#10 62080970#11 62080970#12  "/>
    </vehicle>
    <vehicle id="6021" type="passenger" depart="31.00" departSpeed="max">
        <route edges="203315542#0 -474788300#0 -317319509 -317319505 476442145 -317032950 -203315546#4 -203315546#3 -203315546#2 -203315546#1 -203315546#0 -478048074#1 255180004 317319500#0 317319500#1 475421740 317319496#4 474735871 197557009 474735872#0 474735872#1 474733651#0 474733651#1 474733651#2 475037306#0 475037306#1 475037306#2 475037306#3 475037306#4 475037306#5 475037306#6 475037306#7 474788300#0 -203315542#0 62080970#5 62080970#6 62080970#8 62080970#10 62080970#11 62080970#12  "/>
    </vehicle>
    <vehicle id="6022" type="passenger" depart="32.00" departSpeed="max">
        <route edges="203315542#0 -474788300#0 -317319509 -317319505 476442145 -317032950 -203315546#4 -203315546#3 -203315546#2 -203315546#1 -203315546#0 -478048074#1 255180004 317319500#0 317319500#1 475421740 317319496#4 474735871 197557009 474735872#0 474735872#1 474733651#0 474733651#1 474733651#2 475037306#0 475037306#1 475037306#2 475037306#3 475037306#4 475037306#5 475037306#6 475037306#7 474788300#0 -203315542#0 62080970#5 62080970#6 62080970#8 62080970#10 62080970#11 62080970#12  "/>
    </vehicle>
    <vehicle id="6023" type="passenger" depart="33.00" departSpeed="max">
        <route edges="203315542#0 -474788300#0 -317319509 -317319505 476442145 -317032950 -203315546#4 -203315546#3 -203315546#2 -203315546#1 -203315546#0 -478048074#1 255180004 317319500#0 317319500#1 475421740 317319496#4 474735871 197557009 474735872#0 474735872#1 474733651#0 474733651#1 474733651#2 475037306#0 475037306#1 475037306#2 475037306#3 475037306#4 475037306#5 475037306#6 475037306#7 474788300#0 -203315542#0 62080970#5 62080970#6 62080970#8 62080970#10 62080970#11 62080970#12  "/>
    </vehicle>
    <vehicle id="6024" type="passenger" depart="34.00" departSpeed="max">
        <route edges="203315542#0 -474788300#0 -317319509 -317319505 476442145 -317032950 -203315546#4 -203315546#3 -203315546#2 -203315546#1 -203315546#0 -478048074#1 255180004 317319500#0 317319500#1 475421740 317319496#4 474735871 197557009 474735872#0 474735872#1 474733651#0 474733651#1 474733651#2 475037306#0 475037306#1 475037306#2 475037306#3 475037306#4 475037306#5 475037306#6 475037306#7 474788300#0 -203315542#0 62080970#5 62080970#6 62080970#8 62080970#10 62080970#11 62080970#12  "/>
    </vehicle>
    <vehicle id="6025" type="passenger" depart="35.00" departSpeed="max">
        <route edges="203315542#0 -474788300#0 -317319509 -317319505 476442145 -317032950 -203315546#4 -203315546#3 -203315546#2 -203315546#1 -203315546#0 -478048074#1 255180004 317319500#0 317319500#1 475421740 317319496#4 474735871 197557009 474735872#0 474735872#1 474733651#0 474733651#1 474733651#2 475037306#0 475037306#1 475037306#2 475037306#3 475037306#4 475037306#5 475037306#6 475037306#7 474788300#0 -203315542#0 62080970#5 62080970#6 62080970#8 62080970#10 62080970#11 62080970#12  "/>
    </vehicle>
    <vehicle id="6026" type="passenger" depart="36.00" departSpeed="max">
        <route edges="203315542#0 -474788300#0 -317319509 -317319505 476442145 -317032950 -203315546#4 -203315546#3 -203315546#2 -203315546#1 -203315546#0 -478048074#1 255180004 317319500#0 317319500#1 475421740 317319496#4 474735871 197557009 474735872#0 474735872#1 474733651#0 474733651#1 474733651#2 475037306#0 475037306#1 475037306#2 475037306#3 475037306#4 475037306#5 475037306#6 475037306#7 474788300#0 -203315542#0 62080970#5 62080970#6 62080970#8 62080970#10 62080970#11 62080970#12  "/>
    </vehicle>
    <vehicle id="6027" type="passenger" depart="37.00" departSpeed="max">
        <route edges="203315542#0 -474788300#0 -317319509 -317319505 476442145 -317032950 -203315546#4 -203315546#3 -203315546#2 -203315546#1 -203315546#0 -478048074#1 255180004 317319500#0 317319500#1 475421740 317319496#4 474735871 197557009 474735872#0 474735872#1 474733651#0 474733651#1 474733651#2 475037306#0 475037306#1 475037306#2 475037306#3 475037306#4 475037306#5 475037306#6 475037306#7 474788300#0 -203315542#0 62080970#5 62080970#6 62080970#8 62080970#10 62080970#11 62080970#12  "/>
    </vehicle>
    <vehicle id="6028" type="passenger" depart="38.00" departSpeed="max">
        <route edges="203315542#0 -474788300#0 -317319509 -317319505 476442145 -317032950 -203315546#4 -203315546#3 -203315546#2 -203315546#1 -203315546#0 -478048074#1 255180004 317319500#0 317319500#1 475421740 317319496#4 474735871 197557009 474735872#0 474735872#1 474733651#0 474733651#1 474733651#2 475037306#0 475037306#1 475037306#2 475037306#3 475037306#4 475037306#5 475037306#6 475037306#7 474788300#0 -203315542#0 62080970#5 62080970#6 62080970#8 62080970#10 62080970#11 62080970#12  "/>
    </vehicle>
    <vehicle id="6029" type="passenger" depart="39.00" departSpeed="max">
        <route edges="203315542#0 -474788300#0 -317319509 -317319505 476442145 -317032950 -203315546#4 -203315546#3 -203315546#2 -203315546#1 -203315546#0 -478048074#1 255180004 317319500#0 317319500#1 475421740 317319496#4 474735871 197557009 474735872#0 474735872#1 474733651#0 474733651#1 474733651#2 475037306#0 475037306#1 475037306#2 475037306#3 475037306#4 475037306#5 475037306#6 475037306#7 474788300#0 -203315542#0 62080970#5 62080970#6 62080970#8 62080970#10 62080970#11 62080970#12  "/>
    </vehicle>
    <vehicle id="6030" type="passenger" depart="40.00" departSpeed="max">
        <route edges="203315542#0 -474788300#0 -317319509 -317319505 476442145 -317032950 -203315546#4 -203315546#3 -203315546#2 -203315546#1 -203315546#0 -478048074#1 255180004 317319500#0 317319500#1 475421740 317319496#4 474735871 197557009 474735872#0 474735872#1 474733651#0 474733651#1 474733651#2 475037306#0 475037306#1 475037306#2 475037306#3 475037306#4 475037306#5 475037306#6 475037306#7 474788300#0 -203315542#0 62080970#5 62080970#6 62080970#8 62080970#10 62080970#11 62080970#12  "/>
    </vehicle>
    <vehicle id="6031" type="passenger" depart="41.00" departSpeed="max">
        <route edges="203315542#0 -474788300#0 -317319509 -317319505 476442145 -317032950 -203315546#4 -203315546#3 -203315546#2 -203315546#1 -203315546#0 -478048074#1 255180004 317319500#0 317319500#1 475421740 317319496#4 474735871 197557009 474735872#0 474735872#1 474733651#0 474733651#1 474733651#2 475037306#0 475037306#1 475037306#2 475037306#3 475037306#4 475037306#5 475037306#6 475037306#7 474788300#0 -203315542#0 62080970#5 62080970#6 62080970#8 62080970#10 62080970#11 62080970#12  "/>
    </vehicle>
    <vehicle id="6032" type="passenger" depart="42.00" departSpeed="max">
        <route edges="203315542#0 -474788300#0 -317319509 -317319505 476442145 -317032950 -203315546#4 -203315546#3 -203315546#2 -203315546#1 -203315546#0 -478048074#1 255180004 317319500#0 317319500#1 475421740 317319496#4 474735871 197557009 474735872#0 474735872#1 474733651#0 474733651#1 474733651#2 475037306#0 475037306#1 475037306#2 475037306#3 475037306#4 475037306#5 475037306#6 475037306#7 474788300#0 -203315542#0 62080970#5 62080970#6 62080970#8 62080970#10 62080970#11 62080970#12  "/>
    </vehicle>
    <vehicle id="6033" type="passenger" depart="43.00" departSpeed="max">
        <route edges="203315542#0 -474788300#0 -317319509 -317319505 476442145 -317032950 -203315546#4 -203315546#3 -203315546#2 -203315546#1 -203315546#0 -478048074#1 255180004 317319500#0 317319500#1 475421740 317319496#4 474735871 197557009 474735872#0 474735872#1 474733651#0 474733651#1 474733651#2 475037306#0 475037306#1 475037306#2 475037306#3 475037306#4 475037306#5 475037306#6 475037306#7 474788300#0 -203315542#0 62080970#5 62080970#6 62080970#8 62080970#10 62080970#11 62080970#12  "/>
    </vehicle>
    <vehicle id="6034" type="passenger" depart="44.00" departSpeed="max">
        <route edges="203315542#0 -474788300#0 -317319509 -317319505 476442145 -317032950 -203315546#4 -203315546#3 -203315546#2 -203315546#1 -203315546#0 -478048074#1 255180004 317319500#0 317319500#1 475421740 317319496#4 474735871 197557009 474735872#0 474735872#1 474733651#0 474733651#1 474733651#2 475037306#0 475037306#1 475037306#2 475037306#3 475037306#4 475037306#5 475037306#6 475037306#7 474788300#0 -203315542#0 62080970#5 62080970#6 62080970#8 62080970#10 62080970#11 62080970#12  "/>
    </vehicle>
    <vehicle id="6035" type="passenger" depart="45.00" departSpeed="max">
        <route edges="203315542#0 -474788300#0 -317319509 -317319505 476442145 -317032950 -203315546#4 -203315546#3 -203315546#2 -203315546#1 -203315546#0 -478048074#1 255180004 317319500#0 317319500#1 475421740 317319496#4 474735871 197557009 474735872#0 474735872#1 474733651#0 474733651#1 474733651#2 475037306#0 475037306#1 475037306#2 475037306#3 475037306#4 475037306#5 475037306#6 475037306#7 474788300#0 -203315542#0 62080970#5 62080970#6 62080970#8 62080970#10 62080970#11 62080970#12  "/>
    </vehicle>
    <vehicle id="6036" type="passenger" depart="46.00" departSpeed="max">
        <route edges="203315542#0 -474788300#0 -317319509 -317319505 476442145 -317032950 -203315546#4 -203315546#3 -203315546#2 -203315546#1 -203315546#0 -478048074#1 255180004 317319500#0 317319500#1 475421740 317319496#4 474735871 197557009 474735872#0 474735872#1 474733651#0 474733651#1 474733651#2 475037306#0 475037306#1 475037306#2 475037306#3 475037306#4 475037306#5 475037306#6 475037306#7 474788300#0 -203315542#0 62080970#5 62080970#6 62080970#8 62080970#10 62080970#11 62080970#12  "/>
    </vehicle>
    <vehicle id="6037" type="passenger" depart="47.00" departSpeed="max">
        <route edges="203315542#0 -474788300#0 -317319509 -317319505 476442145 -317032950 -203315546#4 -203315546#3 -203315546#2 -203315546#1 -203315546#0 -478048074#1 255180004 317319500#0 317319500#1 475421740 317319496#4 474735871 197557009 474735872#0 474735872#1 474733651#0 474733651#1 474733651#2 475037306#0 475037306#1 475037306#2 475037306#3 475037306#4 475037306#5 475037306#6 475037306#7 474788300#0 -203315542#0 62080970#5 62080970#6 62080970#8 62080970#10 62080970#11 62080970#12  "/>
    </vehicle>
    <vehicle id="6038" type="passenger" depart="48.00" departSpeed="max">
        <route edges="203315542#0 -474788300#0 -317319509 -317319505 476442145 -317032950 -203315546#4 -203315546#3 -203315546#2 -203315546#1 -203315546#0 -478048074#1 255180004 317319500#0 317319500#1 475421740 317319496#4 474735871 197557009 474735872#0 474735872#1 474733651#0 474733651#1 474733651#2 475037306#0 475037306#1 475037306#2 475037306#3 475037306#4 475037306#5 475037306#6 475037306#7 474788300#0 -203315542#0 62080970#5 62080970#6 62080970#8 62080970#10 62080970#11 62080970#12  "/>
    </vehicle>
    <vehicle id="6039" type="passenger" depart="49.00" departSpeed="max">
        <route edges="203315542#0 -474788300#0 -317319509 -317319505 476442145 -317032950 -203315546#4 -203315546#3 -203315546#2 -203315546#1 -203315546#0 -478048074#1 255180004 317319500#0 317319500#1 475421740 317319496#4 474735871 197557009 474735872#0 474735872#1 474733651#0 474733651#1 474733651#2 475037306#0 475037306#1 475037306#2 475037306#3 475037306#4 475037306#5 475037306#6 475037306#7 474788300#0 -203315542#0 62080970#5 62080970#6 62080970#8 62080970#10 62080970#11 62080970#12  "/>
    </vehicle>
    <vehicle id="6040" type="passenger" depart="50.00" departSpeed="max">
        <route edges="203315542#0 -474788300#0 -317319509 -317319505 476442145 -317032950 -203315546#4 -203315546#3 -203315546#2 -203315546#1 -203315546#0 -478048074#1 255180004 317319500#0 317319500#1 475421740 317319496#4 474735871 197557009 474735872#0 474735872#1 474733651#0 474733651#1 474733651#2 475037306#0 475037306#1 475037306#2 475037306#3 475037306#4 475037306#5 475037306#6 475037306#7 474788300#0 -203315542#0 62080970#5 62080970#6 62080970#8 62080970#10 62080970#11 62080970#12  "/>
    </vehicle>
    <vehicle id="6041" type="passenger" depart="51.00" departSpeed="max">
        <route edges="203315542#0 -474788300#0 -317319509 -317319505 476442145 -317032950 -203315546#4 -203315546#3 -203315546#2 -203315546#1 -203315546#0 -478048074#1 255180004 317319500#0 317319500#1 475421740 317319496#4 474735871 197557009 474735872#0 474735872#1 474733651#0 474733651#1 474733651#2 475037306#0 475037306#1 475037306#2 475037306#3 475037306#4 475037306#5 475037306#6 475037306#7 474788300#0 -203315542#0 62080970#5 62080970#6 62080970#8 62080970#10 62080970#11 62080970#12  "/>
    </vehicle>
    <vehicle id="6042" type="passenger" depart="52.00" departSpeed="max">
        <route edges="203315542#0 -474788300#0 -317319509 -317319505 476442145 -317032950 -203315546#4 -203315546#3 -203315546#2 -203315546#1 -203315546#0 -478048074#1 255180004 317319500#0 317319500#1 475421740 317319496#4 474735871 197557009 474735872#0 474735872#1 474733651#0 474733651#1 474733651#2 475037306#0 475037306#1 475037306#2 475037306#3 475037306#4 475037306#5 475037306#6 475037306#7 474788300#0 -203315542#0 62080970#5 62080970#6 62080970#8 62080970#10 62080970#11 62080970#12  "/>
    </vehicle>
    <vehicle id="6043" type="passenger" depart="53.00" departSpeed="max">
        <route edges="203315542#0 -474788300#0 -317319509 -317319505 476442145 -317032950 -203315546#4 -203315546#3 -203315546#2 -203315546#1 -203315546#0 -478048074#1 255180004 317319500#0 317319500#1 475421740 317319496#4 474735871 197557009 474735872#0 474735872#1 474733651#0 474733651#1 474733651#2 475037306#0 475037306#1 475037306#2 475037306#3 475037306#4 475037306#5 475037306#6 475037306#7 474788300#0 -203315542#0 62080970#5 62080970#6 62080970#8 62080970#10 62080970#11 62080970#12  "/>
    </vehicle>
    <vehicle id="6044" type="passenger" depart="54.00" departSpeed="max">
        <route edges="203315542#0 -474788300#0 -317319509 -317319505 476442145 -317032950 -203315546#4 -203315546#3 -203315546#2 -203315546#1 -203315546#0 -478048074#1 255180004 317319500#0 317319500#1 475421740 317319496#4 474735871 197557009 474735872#0 474735872#1 474733651#0 474733651#1 474733651#2 475037306#0 475037306#1 475037306#2 475037306#3 475037306#4 475037306#5 475037306#6 475037306#7 474788300#0 -203315542#0 62080970#5 62080970#6 62080970#8 62080970#10 62080970#11 62080970#12  "/>
    </vehicle>
    <vehicle id="6045" type="passenger" depart="55.00" departSpeed="max">
        <route edges="203315542#0 -474788300#0 -317319509 -317319505 476442145 -317032950 -203315546#4 -203315546#3 -203315546#2 -203315546#1 -203315546#0 -478048074#1 255180004 317319500#0 317319500#1 475421740 317319496#4 474735871 197557009 474735872#0 474735872#1 474733651#0 474733651#1 474733651#2 475037306#0 475037306#1 475037306#2 475037306#3 475037306#4 475037306#5 475037306#6 475037306#7 474788300#0 -203315542#0 62080970#5 62080970#6 62080970#8 62080970#10 62080970#11 62080970#12  "/>
    </vehicle>
    <vehicle id="6046" type="passenger" depart="56.00" departSpeed="max">
        <route edges="203315542#0 -474788300#0 -317319509 -317319505 476442145 -317032950 -203315546#4 -203315546#3 -203315546#2 -203315546#1 -203315546#0 -478048074#1 255180004 317319500#0 317319500#1 475421740 317319496#4 474735871 197557009 474735872#0 474735872#1 474733651#0 474733651#1 474733651#2 475037306#0 475037306#1 475037306#2 475037306#3 475037306#4 475037306#5 475037306#6 475037306#7 474788300#0 -203315542#0 62080970#5 62080970#6 62080970#8 62080970#10 62080970#11 62080970#12  "/>
    </vehicle>
    <vehicle id="6047" type="passenger" depart="57.00" departSpeed="max">
        <route edges="203315542#0 -474788300#0 -317319509 -317319505 476442145 -317032950 -203315546#4 -203315546#3 -203315546#2 -203315546#1 -203315546#0 -478048074#1 255180004 317319500#0 317319500#1 475421740 317319496#4 474735871 197557009 474735872#0 474735872#1 474733651#0 474733651#1 474733651#2 475037306#0 475037306#1 475037306#2 475037306#3 475037306#4 475037306#5 475037306#6 475037306#7 474788300#0 -203315542#0 62080970#5 62080970#6 62080970#8 62080970#10 62080970#11 62080970#12  "/>
    </vehicle>
    <vehicle id="6048" type="passenger" depart="58.00" departSpeed="max">
        <route edges="203315542#0 -474788300#0 -317319509 -317319505 476442145 -317032950 -203315546#4 -203315546#3 -203315546#2 -203315546#1 -203315546#0 -478048074#1 255180004 317319500#0 317319500#1 475421740 317319496#4 474735871 197557009 474735872#0 474735872#1 474733651#0 474733651#1 474733651#2 475037306#0 475037306#1 475037306#2 475037306#3 475037306#4 475037306#5 475037306#6 475037306#7 474788300#0 -203315542#0 62080970#5 62080970#6 62080970#8 62080970#10 62080970#11 62080970#12  "/>
    </vehicle>
    <vehicle id="6049" type="passenger" depart="59.00" departSpeed="max">
        <route edges="203315542#0 -474788300#0 -317319509 -317319505 476442145 -317032950 -203315546#4 -203315546#3 -203315546#2 -203315546#1 -203315546#0 -478048074#1 255180004 317319500#0 317319500#1 475421740 317319496#4 474735871 197557009 474735872#0 474735872#1 474733651#0 474733651#1 474733651#2 475037306#0 475037306#1 475037306#2 475037306#3 475037306#4 475037306#5 475037306#6 475037306#7 474788300#0 -203315542#0 62080970#5 62080970#6 62080970#8 62080970#10 62080970#11 62080970#12  "/>
    </vehicle>
    <vehicle id="6050" type="passenger" depart="60.00" departSpeed="max">