<?xml version="1.0" ?>
<routes xmlns:xsi="http://www.w3.org/2001/XMLSchema-instance" xsi:noNamespaceSchemaLocation="http://sumo.dlr.de/xsd/routes_file.xsd">
    <vehicle id="6100" type="passenger" depart="10.00" departSpeed="max">
        <route edges="-183946735#1 -183946735#0 -183840100#4 -183840100#1 866318725#1 311576774 732411491 866318724 243908725#0 243908725#2 243908725#3 243908725#4 243908725#5 243908725#6 243908725#7 461206602 732411488 732411487 882789874#0 244421758#2 244421758#3 37099791#0 37099791#1 37099791#3 449379851#1 413955653#10 413955653#11 -330466878#17 -330466878#16 -330466878#14 -330466878#9 -330466878#8 -330466878#7 -330466878#5 -330466878#4 -330466878#3 -330466878#1 -172356275#2 -172356275#1 23766390#1 23766390#2 23766390#3 23766390#4 23766390#7 23766390#8 23766390#9 23766390#10 23766390#12 23766390#13 23766392#0 23766392#2 23766392#3 23766392#4 23766392#5 23766392#7 23766392#8 23766392#9 23766392#10 23766392#13 23766392#16 23766392#17 23766392#18 23766392#19 23766397#0 23766397#1 23766397#2 23766397#3 23766397#4 23766397#6 236367442#0 236367442#1 236367442#2 236367442#3 236367442#4 236367442#5 316690652#0 316690652#1 316690652#2 316690652#3 1257895196#0 1257895199 1257895197#0 1257895197#1 1257895197#2 1257895197#3 1257895197#4 1257895197#5 158758847#1 158758847#2 158758847#4 158758847#5 158758847#6 -505644564#11 -505644564#10 -505644564#9 -505644564#6 -505644564#5 -505644564#4 -505644564#2 -505644564#1 -505644564#0 110526118#1 110526118#2 110526118#3 110526118#6 110526118#8 110526118#9 110526118#10 110526118#12 110526118#13 110526118#15 110526118#16 110526118#17 221195129#22 221195129#23 221195129#24 221195129#26 221195129#28 221195129#30 221195129#31 221195129#32 221195129#33 221195129#34 221195129#35 221195129#38 221195129#39 221195129#40 158978976#1 158978976#2 158978976#3 158978976#4 158978976#6 62080970#1 62080970#2 203315542#0 -474788300#0 -475037306#7 -475037306#6 -475037306#5 -475037306#4 -475037306#3 -475037306#2 -475037306#1 -475037306#0"/>
    </vehicle>
    <vehicle id="6101" type="passenger" depart="11.00" departSpeed="max">
        <route edges="-183946735#1 -183946735#0 -183840100#4 -183840100#1 866318725#1 311576774 732411491 866318724 243908725#0 243908725#2 243908725#3 243908725#4 243908725#5 243908725#6 243908725#7 461206602 732411488 732411487 882789874#0 244421758#2 244421758#3 37099791#0 37099791#1 37099791#3 449379851#1 413955653#10 413955653#11 -330466878#17 -330466878#16 -330466878#14 -330466878#9 -330466878#8 -330466878#7 -330466878#5 -330466878#4 -330466878#3 -330466878#1 -172356275#2 -172356275#1 23766390#1 23766390#2 23766390#3 23766390#4 23766390#7 23766390#8 23766390#9 23766390#10 23766390#12 23766390#13 23766392#0 23766392#2 23766392#3 23766392#4 23766392#5 23766392#7 23766392#8 23766392#9 23766392#10 23766392#13 23766392#16 23766392#17 23766392#18 23766392#19 23766397#0 23766397#1 23766397#2 23766397#3 23766397#4 23766397#6 236367442#0 236367442#1 236367442#2 236367442#3 236367442#4 236367442#5 316690652#0 316690652#1 316690652#2 316690652#3 1257895196#0 1257895199 1257895197#0 1257895197#1 1257895197#2 1257895197#3 1257895197#4 1257895197#5 158758847#1 158758847#2 158758847#4 158758847#5 158758847#6 -505644564#11 -505644564#10 -505644564#9 -505644564#6 -505644564#5 -505644564#4 -505644564#2 -505644564#1 -505644564#0 110526118#1 110526118#2 110526118#3 110526118#6 110526118#8 110526118#9 110526118#10 110526118#12 110526118#13 110526118#15 110526118#16 110526118#17 221195129#22 221195129#23 221195129#24 221195129#26 221195129#28 221195129#30 221195129#31 221195129#32 221195129#33 221195129#34 221195129#35 221195129#38 221195129#39 221195129#40 158978976#1 158978976#2 158978976#3 158978976#4 158978976#6 62080970#1 62080970#2 203315542#0 -474788300#0 -475037306#7 -475037306#6 -475037306#5 -475037306#4 -475037306#3 -475037306#2 -475037306#1 -475037306#0"/>
    </vehicle>
    <vehicle id="6102" type="passenger" depart="12.00" departSpeed="max">
        <route edges="-183946735#1 -183946735#0 -183840100#4 -183840100#1 866318725#1 311576774 732411491 866318724 243908725#0 243908725#2 243908725#3 243908725#4 243908725#5 243908725#6 243908725#7 461206602 732411488 732411487 882789874#0 244421758#2 244421758#3 37099791#0 37099791#1 37099791#3 449379851#1 413955653#10 413955653#11 -330466878#17 -330466878#16 -330466878#14 -330466878#9 -330466878#8 -330466878#7 -330466878#5 -330466878#4 -330466878#3 -330466878#1 -172356275#2 -172356275#1 23766390#1 23766390#2 23766390#3 23766390#4 23766390#7 23766390#8 23766390#9 23766390#10 23766390#12 23766390#13 23766392#0 23766392#2 23766392#3 23766392#4 23766392#5 23766392#7 23766392#8 23766392#9 23766392#10 23766392#13 23766392#16 23766392#17 23766392#18 23766392#19 23766397#0 23766397#1 23766397#2 23766397#3 23766397#4 23766397#6 236367442#0 236367442#1 236367442#2 236367442#3 236367442#4 236367442#5 316690652#0 316690652#1 316690652#2 316690652#3 1257895196#0 1257895199 1257895197#0 1257895197#1 1257895197#2 1257895197#3 1257895197#4 1257895197#5 158758847#1 158758847#2 158758847#4 158758847#5 158758847#6 -505644564#11 -505644564#10 -505644564#9 -505644564#6 -505644564#5 -505644564#4 -505644564#2 -505644564#1 -505644564#0 110526118#1 110526118#2 110526118#3 110526118#6 110526118#8 110526118#9 110526118#10 110526118#12 110526118#13 110526118#15 110526118#16 110526118#17 221195129#22 221195129#23 221195129#24 221195129#26 221195129#28 221195129#30 221195129#31 221195129#32 221195129#33 221195129#34 221195129#35 221195129#38 221195129#39 221195129#40 158978976#1 158978976#2 158978976#3 158978976#4 158978976#6 62080970#1 62080970#2 203315542#0 -474788300#0 -475037306#7 -475037306#6 -475037306#5 -475037306#4 -475037306#3 -475037306#2 -475037306#1 -475037306#0"/>
    </vehicle>
    <vehicle id="6103" type="passenger" depart="13.00" departSpeed="max">
        <route edges="-183946735#1 -183946735#0 -183840100#4 -183840100#1 866318725#1 311576774 732411491 866318724 243908725#0 243908725#2 243908725#3 243908725#4 243908725#5 243908725#6 243908725#7 461206602 732411488 732411487 882789874#0 244421758#2 244421758#3 37099791#0 37099791#1 37099791#3 449379851#1 413955653#10 413955653#11 -330466878#17 -330466878#16 -330466878#14 -330466878#9 -330466878#8 -330466878#7 -330466878#5 -330466878#4 -330466878#3 -330466878#1 -172356275#2 -172356275#1 23766390#1 23766390#2 23766390#3 23766390#4 23766390#7 23766390#8 23766390#9 23766390#10 23766390#12 23766390#13 23766392#0 23766392#2 23766392#3 23766392#4 23766392#5 23766392#7 23766392#8 23766392#9 23766392#10 23766392#13 23766392#16 23766392#17 23766392#18 23766392#19 23766397#0 23766397#1 23766397#2 23766397#3 23766397#4 23766397#6 236367442#0 236367442#1 236367442#2 236367442#3 236367442#4 236367442#5 316690652#0 316690652#1 316690652#2 316690652#3 1257895196#0 1257895199 1257895197#0 1257895197#1 1257895197#2 1257895197#3 1257895197#4 1257895197#5 158758847#1 158758847#2 158758847#4 158758847#5 158758847#6 -505644564#11 -505644564#10 -505644564#9 -505644564#6 -505644564#5 -505644564#4 -505644564#2 -505644564#1 -505644564#0 110526118#1 110526118#2 110526118#3 110526118#6 110526118#8 110526118#9 110526118#10 110526118#12 110526118#13 110526118#15 110526118#16 110526118#17 221195129#22 221195129#23 221195129#24 221195129#26 221195129#28 221195129#30 221195129#31 221195129#32 221195129#33 221195129#34 221195129#35 221195129#38 221195129#39 221195129#40 158978976#1 158978976#2 158978976#3 158978976#4 158978976#6 62080970#1 62080970#2 203315542#0 -474788300#0 -475037306#7 -475037306#6 -475037306#5 -475037306#4 -475037306#3 -475037306#2 -475037306#1 -475037306#0"/>
    </vehicle>
    <vehicle id="6104" type="passenger" depart="14.00" departSpeed="max">
        <route edges="-183946735#1 -183946735#0 -183840100#4 -183840100#1 866318725#1 311576774 732411491 866318724 243908725#0 243908725#2 243908725#3 243908725#4 243908725#5 243908725#6 243908725#7 461206602 732411488 732411487 882789874#0 244421758#2 244421758#3 37099791#0 37099791#1 37099791#3 449379851#1 413955653#10 413955653#11 -330466878#17 -330466878#16 -330466878#14 -330466878#9 -330466878#8 -330466878#7 -330466878#5 -330466878#4 -330466878#3 -330466878#1 -172356275#2 -172356275#1 23766390#1 23766390#2 23766390#3 23766390#4 23766390#7 23766390#8 23766390#9 23766390#10 23766390#12 23766390#13 23766392#0 23766392#2 23766392#3 23766392#4 23766392#5 23766392#7 23766392#8 23766392#9 23766392#10 23766392#13 23766392#16 23766392#17 23766392#18 23766392#19 23766397#0 23766397#1 23766397#2 23766397#3 23766397#4 23766397#6 236367442#0 236367442#1 236367442#2 236367442#3 236367442#4 236367442#5 316690652#0 316690652#1 316690652#2 316690652#3 1257895196#0 1257895199 1257895197#0 1257895197#1 1257895197#2 1257895197#3 1257895197#4 1257895197#5 158758847#1 158758847#2 158758847#4 158758847#5 158758847#6 -505644564#11 -505644564#10 -505644564#9 -505644564#6 -505644564#5 -505644564#4 -505644564#2 -505644564#1 -505644564#0 110526118#1 110526118#2 110526118#3 110526118#6 110526118#8 110526118#9 110526118#10 110526118#12 110526118#13 110526118#15 110526118#16 110526118#17 221195129#22 221195129#23 221195129#24 221195129#26 221195129#28 221195129#30 221195129#31 221195129#32 221195129#33 221195129#34 221195129#35 221195129#38 221195129#39 221195129#40 158978976#1 158978976#2 158978976#3 158978976#4 158978976#6 62080970#1 62080970#2 203315542#0 -474788300#0 -475037306#7 -475037306#6 -475037306#5 -475037306#4 -475037306#3 -475037306#2 -475037306#1 -475037306#0"/>
    </vehicle>
    <vehicle id="6105" type="passenger" depart="15.00" departSpeed="max">
        <route edges="-183946735#1 -183946735#0 -183840100#4 -183840100#1 866318725#1 311576774 732411491 866318724 243908725#0 243908725#2 243908725#3 243908725#4 243908725#5 243908725#6 243908725#7 461206602 732411488 732411487 882789874#0 244421758#2 244421758#3 37099791#0 37099791#1 37099791#3 449379851#1 413955653#10 413955653#11 -330466878#17 -330466878#16 -330466878#14 -330466878#9 -330466878#8 -330466878#7 -330466878#5 -330466878#4 -330466878#3 -330466878#1 -172356275#2 -172356275#1 23766390#1 23766390#2 23766390#3 23766390#4 23766390#7 23766390#8 23766390#9 23766390#10 23766390#12 23766390#13 23766392#0 23766392#2 23766392#3 23766392#4 23766392#5 23766392#7 23766392#8 23766392#9 23766392#10 23766392#13 23766392#16 23766392#17 23766392#18 23766392#19 23766397#0 23766397#1 23766397#2 23766397#3 23766397#4 23766397#6 236367442#0 236367442#1 236367442#2 236367442#3 236367442#4 236367442#5 316690652#0 316690652#1 316690652#2 316690652#3 1257895196#0 1257895199 1257895197#0 1257895197#1 1257895197#2 1257895197#3 1257895197#4 1257895197#5 158758847#1 158758847#2 158758847#4 158758847#5 158758847#6 -505644564#11 -505644564#10 -505644564#9 -505644564#6 -505644564#5 -505644564#4 -505644564#2 -505644564#1 -505644564#0 110526118#1 110526118#2 110526118#3 110526118#6 110526118#8 110526118#9 110526118#10 110526118#12 110526118#13 110526118#15 110526118#16 110526118#17 221195129#22 221195129#23 221195129#24 221195129#26 221195129#28 221195129#30 221195129#31 221195129#32 221195129#33 221195129#34 221195129#35 221195129#38 221195129#39 221195129#40 158978976#1 158978976#2 158978976#3 158978976#4 158978976#6 62080970#1 62080970#2 203315542#0 -474788300#0 -475037306#7 -475037306#6 -475037306#5 -475037306#4 -475037306#3 -475037306#2 -475037306#1 -475037306#0"/>
    </vehicle>
    <vehicle id="6106" type="passenger" depart="16.00" departSpeed="max">
        <route edges="-183946735#1 -183946735#0 -183840100#4 -183840100#1 866318725#1 311576774 732411491 866318724 243908725#0 243908725#2 243908725#3 243908725#4 243908725#5 243908725#6 243908725#7 461206602 732411488 732411487 882789874#0 244421758#2 244421758#3 37099791#0 37099791#1 37099791#3 449379851#1 413955653#10 413955653#11 -330466878#17 -330466878#16 -330466878#14 -330466878#9 -330466878#8 -330466878#7 -330466878#5 -330466878#4 -330466878#3 -330466878#1 -172356275#2 -172356275#1 23766390#1 23766390#2 23766390#3 23766390#4 23766390#7 23766390#8 23766390#9 23766390#10 23766390#12 23766390#13 23766392#0 23766392#2 23766392#3 23766392#4 23766392#5 23766392#7 23766392#8 23766392#9 23766392#10 23766392#13 23766392#16 23766392#17 23766392#18 23766392#19 23766397#0 23766397#1 23766397#2 23766397#3 23766397#4 23766397#6 236367442#0 236367442#1 236367442#2 236367442#3 236367442#4 236367442#5 316690652#0 316690652#1 316690652#2 316690652#3 1257895196#0 1257895199 1257895197#0 1257895197#1 1257895197#2 1257895197#3 1257895197#4 1257895197#5 158758847#1 158758847#2 158758847#4 158758847#5 158758847#6 -505644564#11 -505644564#10 -505644564#9 -505644564#6 -505644564#5 -505644564#4 -505644564#2 -505644564#1 -505644564#0 110526118#1 110526118#2 110526118#3 110526118#6 110526118#8 110526118#9 110526118#10 110526118#12 110526118#13 110526118#15 110526118#16 110526118#17 221195129#22 221195129#23 221195129#24 221195129#26 221195129#28 221195129#30 221195129#31 221195129#32 221195129#33 221195129#34 221195129#35 221195129#38 221195129#39 221195129#40 158978976#1 158978976#2 158978976#3 158978976#4 158978976#6 62080970#1 62080970#2 203315542#0 -474788300#0 -475037306#7 -475037306#6 -475037306#5 -475037306#4 -475037306#3 -475037306#2 -475037306#1 -475037306#0"/>
    </vehicle>
    <vehicle id="6107" type="passenger" depart="17.00" departSpeed="max">
        <route edges="-183946735#1 -183946735#0 -183840100#4 -183840100#1 866318725#1 311576774 732411491 866318724 243908725#0 243908725#2 243908725#3 243908725#4 243908725#5 243908725#6 243908725#7 461206602 732411488 732411487 882789874#0 244421758#2 244421758#3 37099791#0 37099791#1 37099791#3 449379851#1 413955653#10 413955653#11 -330466878#17 -330466878#16 -330466878#14 -330466878#9 -330466878#8 -330466878#7 -330466878#5 -330466878#4 -330466878#3 -330466878#1 -172356275#2 -172356275#1 23766390#1 23766390#2 23766390#3 23766390#4 23766390#7 23766390#8 23766390#9 23766390#10 23766390#12 23766390#13 23766392#0 23766392#2 23766392#3 23766392#4 23766392#5 23766392#7 23766392#8 23766392#9 23766392#10 23766392#13 23766392#16 23766392#17 23766392#18 23766392#19 23766397#0 23766397#1 23766397#2 23766397#3 23766397#4 23766397#6 236367442#0 236367442#1 236367442#2 236367442#3 236367442#4 236367442#5 316690652#0 316690652#1 316690652#2 316690652#3 1257895196#0 1257895199 1257895197#0 1257895197#1 1257895197#2 1257895197#3 1257895197#4 1257895197#5 158758847#1 158758847#2 158758847#4 158758847#5 158758847#6 -505644564#11 -505644564#10 -505644564#9 -505644564#6 -505644564#5 -505644564#4 -505644564#2 -505644564#1 -505644564#0 110526118#1 110526118#2 110526118#3 110526118#6 110526118#8 110526118#9 110526118#10 110526118#12 110526118#13 110526118#15 110526118#16 110526118#17 221195129#22 221195129#23 221195129#24 221195129#26 221195129#28 221195129#30 221195129#31 221195129#32 221195129#33 221195129#34 221195129#35 221195129#38 221195129#39 221195129#40 158978976#1 158978976#2 158978976#3 158978976#4 158978976#6 62080970#1 62080970#2 203315542#0 -474788300#0 -475037306#7 -475037306#6 -475037306#5 -475037306#4 -475037306#3 -475037306#2 -475037306#1 -475037306#0"/>
    </vehicle>
    <vehicle id="6108" type="passenger" depart="18.00" departSpeed="max">
        <route edges="-183946735#1 -183946735#0 -183840100#4 -183840100#1 866318725#1 311576774 732411491 866318724 243908725#0 243908725#2 243908725#3 243908725#4 243908725#5 243908725#6 243908725#7 461206602 732411488 732411487 882789874#0 244421758#2 244421758#3 37099791#0 37099791#1 37099791#3 449379851#1 413955653#10 413955653#11 -330466878#17 -330466878#16 -330466878#14 -330466878#9 -330466878#8 -330466878#7 -330466878#5 -330466878#4 -330466878#3 -330466878#1 -172356275#2 -172356275#1 23766390#1 23766390#2 23766390#3 23766390#4 23766390#7 23766390#8 23766390#9 23766390#10 23766390#12 23766390#13 23766392#0 23766392#2 23766392#3 23766392#4 23766392#5 23766392#7 23766392#8 23766392#9 23766392#10 23766392#13 23766392#16 23766392#17 23766392#18 23766392#19 23766397#0 23766397#1 23766397#2 23766397#3 23766397#4 23766397#6 236367442#0 236367442#1 236367442#2 236367442#3 236367442#4 236367442#5 316690652#0 316690652#1 316690652#2 316690652#3 1257895196#0 1257895199 1257895197#0 1257895197#1 1257895197#2 1257895197#3 1257895197#4 1257895197#5 158758847#1 158758847#2 158758847#4 158758847#5 158758847#6 -505644564#11 -505644564#10 -505644564#9 -505644564#6 -505644564#5 -505644564#4 -505644564#2 -505644564#1 -505644564#0 110526118#1 110526118#2 110526118#3 110526118#6 110526118#8 110526118#9 110526118#10 110526118#12 110526118#13 110526118#15 110526118#16 110526118#17 221195129#22 221195129#23 221195129#24 221195129#26 221195129#28 221195129#30 221195129#31 221195129#32 221195129#33 221195129#34 221195129#35 221195129#38 221195129#39 221195129#40 158978976#1 158978976#2 158978976#3 158978976#4 158978976#6 62080970#1 62080970#2 203315542#0 -474788300#0 -475037306#7 -475037306#6 -475037306#5 -475037306#4 -475037306#3 -475037306#2 -475037306#1 -475037306#0"/>
    </vehicle>
    <vehicle id="6109" type="passenger" depart="19.00" departSpeed="max">
        <route edges="-183946735#1 -183946735#0 -183840100#4 -183840100#1 866318725#1 311576774 732411491 866318724 243908725#0 243908725#2 243908725#3 243908725#4 243908725#5 243908725#6 243908725#7 461206602 732411488 732411487 882789874#0 244421758#2 244421758#3 37099791#0 37099791#1 37099791#3 449379851#1 413955653#10 413955653#11 -330466878#17 -330466878#16 -330466878#14 -330466878#9 -330466878#8 -330466878#7 -330466878#5 -330466878#4 -330466878#3 -330466878#1 -172356275#2 -172356275#1 23766390#1 23766390#2 23766390#3 23766390#4 23766390#7 23766390#8 23766390#9 23766390#10 23766390#12 23766390#13 23766392#0 23766392#2 23766392#3 23766392#4 23766392#5 23766392#7 23766392#8 23766392#9 23766392#10 23766392#13 23766392#16 23766392#17 23766392#18 23766392#19 23766397#0 23766397#1 23766397#2 23766397#3 23766397#4 23766397#6 236367442#0 236367442#1 236367442#2 236367442#3 236367442#4 236367442#5 316690652#0 316690652#1 316690652#2 316690652#3 1257895196#0 1257895199 1257895197#0 1257895197#1 1257895197#2 1257895197#3 1257895197#4 1257895197#5 158758847#1 158758847#2 158758847#4 158758847#5 158758847#6 -505644564#11 -505644564#10 -505644564#9 -505644564#6 -505644564#5 -505644564#4 -505644564#2 -505644564#1 -505644564#0 110526118#1 110526118#2 110526118#3 110526118#6 110526118#8 110526118#9 110526118#10 110526118#12 110526118#13 110526118#15 110526118#16 110526118#17 221195129#22 221195129#23 221195129#24 221195129#26 221195129#28 221195129#30 221195129#31 221195129#32 221195129#33 221195129#34 221195129#35 221195129#38 221195129#39 221195129#40 158978976#1 158978976#2 158978976#3 158978976#4 158978976#6 62080970#1 62080970#2 203315542#0 -474788300#0 -475037306#7 -475037306#6 -475037306#5 -475037306#4 -475037306#3 -475037306#2 -475037306#1 -475037306#0"/>
    </vehicle>
    <vehicle id="6110" type="passenger" depart="20.00" departSpeed="max">
        <route edges="-183946735#1 -183946735#0 -183840100#4 -183840100#1 866318725#1 311576774 732411491 866318724 243908725#0 243908725#2 243908725#3 243908725#4 243908725#5 243908725#6 243908725#7 461206602 732411488 732411487 882789874#0 244421758#2 244421758#3 37099791#0 37099791#1 37099791#3 449379851#1 413955653#10 413955653#11 -330466878#17 -330466878#16 -330466878#14 -330466878#9 -330466878#8 -330466878#7 -330466878#5 -330466878#4 -330466878#3 -330466878#1 -172356275#2 -172356275#1 23766390#1 23766390#2 23766390#3 23766390#4 23766390#7 23766390#8 23766390#9 23766390#10 23766390#12 23766390#13 23766392#0 23766392#2 23766392#3 23766392#4 23766392#5 23766392#7 23766392#8 23766392#9 23766392#10 23766392#13 23766392#16 23766392#17 23766392#18 23766392#19 23766397#0 23766397#1 23766397#2 23766397#3 23766397#4 23766397#6 236367442#0 236367442#1 236367442#2 236367442#3 236367442#4 236367442#5 316690652#0 316690652#1 316690652#2 316690652#3 1257895196#0 1257895199 1257895197#0 1257895197#1 1257895197#2 1257895197#3 1257895197#4 1257895197#5 158758847#1 158758847#2 158758847#4 158758847#5 158758847#6 -505644564#11 -505644564#10 -505644564#9 -505644564#6 -505644564#5 -505644564#4 -505644564#2 -505644564#1 -505644564#0 110526118#1 110526118#2 110526118#3 110526118#6 110526118#8 110526118#9 110526118#10 110526118#12 110526118#13 110526118#15 110526118#16 110526118#17 221195129#22 221195129#23 221195129#24 221195129#26 221195129#28 221195129#30 221195129#31 221195129#32 221195129#33 221195129#34 221195129#35 221195129#38 221195129#39 221195129#40 158978976#1 158978976#2 158978976#3 158978976#4 158978976#6 62080970#1 62080970#2 203315542#0 -474788300#0 -475037306#7 -475037306#6 -475037306#5 -475037306#4 -475037306#3 -475037306#2 -475037306#1 -475037306#0"/>
    </vehicle>
    <vehicle id="6111" type="passenger" depart="21.00" departSpeed="max">
        <route edges="-183946735#1 -183946735#0 -183840100#4 -183840100#1 866318725#1 311576774 732411491 866318724 243908725#0 243908725#2 243908725#3 243908725#4 243908725#5 243908725#6 243908725#7 461206602 732411488 732411487 882789874#0 244421758#2 244421758#3 37099791#0 37099791#1 37099791#3 449379851#1 413955653#10 413955653#11 -330466878#17 -330466878#16 -330466878#14 -330466878#9 -330466878#8 -330466878#7 -330466878#5 -330466878#4 -330466878#3 -330466878#1 -172356275#2 -172356275#1 23766390#1 23766390#2 23766390#3 23766390#4 23766390#7 23766390#8 23766390#9 23766390#10 23766390#12 23766390#13 23766392#0 23766392#2 23766392#3 23766392#4 23766392#5 23766392#7 23766392#8 23766392#9 23766392#10 23766392#13 23766392#16 23766392#17 23766392#18 23766392#19 23766397#0 23766397#1 23766397#2 23766397#3 23766397#4 23766397#6 236367442#0 236367442#1 236367442#2 236367442#3 236367442#4 236367442#5 316690652#0 316690652#1 316690652#2 316690652#3 1257895196#0 1257895199 1257895197#0 1257895197#1 1257895197#2 1257895197#3 1257895197#4 1257895197#5 158758847#1 158758847#2 158758847#4 158758847#5 158758847#6 -505644564#11 -505644564#10 -505644564#9 -505644564#6 -505644564#5 -505644564#4 -505644564#2 -505644564#1 -505644564#0 110526118#1 110526118#2 110526118#3 110526118#6 110526118#8 110526118#9 110526118#10 110526118#12 110526118#13 110526118#15 110526118#16 110526118#17 221195129#22 221195129#23 221195129#24 221195129#26 221195129#28 221195129#30 221195129#31 221195129#32 221195129#33 221195129#34 221195129#35 221195129#38 221195129#39 221195129#40 158978976#1 158978976#2 158978976#3 158978976#4 158978976#6 62080970#1 62080970#2 203315542#0 -474788300#0 -475037306#7 -475037306#6 -475037306#5 -475037306#4 -475037306#3 -475037306#2 -475037306#1 -475037306#0"/>
    </vehicle>
    <vehicle id="6112" type="passenger" depart="22.00" departSpeed="max">
        <route edges="-183946735#1 -183946735#0 -183840100#4 -183840100#1 866318725#1 311576774 732411491 866318724 243908725#0 243908725#2 243908725#3 243908725#4 243908725#5 243908725#6 243908725#7 461206602 732411488 732411487 882789874#0 244421758#2 244421758#3 37099791#0 37099791#1 37099791#3 449379851#1 413955653#10 413955653#11 -330466878#17 -330466878#16 -330466878#14 -330466878#9 -330466878#8 -330466878#7 -330466878#5 -330466878#4 -330466878#3 -330466878#1 -172356275#2 -172356275#1 23766390#1 23766390#2 23766390#3 23766390#4 23766390#7 23766390#8 23766390#9 23766390#10 23766390#12 23766390#13 23766392#0 23766392#2 23766392#3 23766392#4 23766392#5 23766392#7 23766392#8 23766392#9 23766392#10 23766392#13 23766392#16 23766392#17 23766392#18 23766392#19 23766397#0 23766397#1 23766397#2 23766397#3 23766397#4 23766397#6 236367442#0 236367442#1 236367442#2 236367442#3 236367442#4 236367442#5 316690652#0 316690652#1 316690652#2 316690652#3 1257895196#0 1257895199 1257895197#0 1257895197#1 1257895197#2 1257895197#3 1257895197#4 1257895197#5 158758847#1 158758847#2 158758847#4 158758847#5 158758847#6 -505644564#11 -505644564#10 -505644564#9 -505644564#6 -505644564#5 -505644564#4 -505644564#2 -505644564#1 -505644564#0 110526118#1 110526118#2 110526118#3 110526118#6 110526118#8 110526118#9 110526118#10 110526118#12 110526118#13 110526118#15 110526118#16 110526118#17 221195129#22 221195129#23 221195129#24 221195129#26 221195129#28 221195129#30 221195129#31 221195129#32 221195129#33 221195129#34 221195129#35 221195129#38 221195129#39 221195129#40 158978976#1 158978976#2 158978976#3 158978976#4 158978976#6 62080970#1 62080970#2 203315542#0 -474788300#0 -475037306#7 -475037306#6 -475037306#5 -475037306#4 -475037306#3 -475037306#2 -475037306#1 -475037306#0"/>
    </vehicle>
    <vehicle id="6113" type="passenger" depart="23.00" departSpeed="max">
        <route edges="-183946735#1 -183946735#0 -183840100#4 -183840100#1 866318725#1 311576774 732411491 866318724 243908725#0 243908725#2 243908725#3 243908725#4 243908725#5 243908725#6 243908725#7 461206602 732411488 732411487 882789874#0 244421758#2 244421758#3 37099791#0 37099791#1 37099791#3 449379851#1 413955653#10 413955653#11 -330466878#17 -330466878#16 -330466878#14 -330466878#9 -330466878#8 -330466878#7 -330466878#5 -330466878#4 -330466878#3 -330466878#1 -172356275#2 -172356275#1 23766390#1 23766390#2 23766390#3 23766390#4 23766390#7 23766390#8 23766390#9 23766390#10 23766390#12 23766390#13 23766392#0 23766392#2 23766392#3 23766392#4 23766392#5 23766392#7 23766392#8 23766392#9 23766392#10 23766392#13 23766392#16 23766392#17 23766392#18 23766392#19 23766397#0 23766397#1 23766397#2 23766397#3 23766397#4 23766397#6 236367442#0 236367442#1 236367442#2 236367442#3 236367442#4 236367442#5 316690652#0 316690652#1 316690652#2 316690652#3 1257895196#0 1257895199 1257895197#0 1257895197#1 1257895197#2 1257895197#3 1257895197#4 1257895197#5 158758847#1 158758847#2 158758847#4 158758847#5 158758847#6 -505644564#11 -505644564#10 -505644564#9 -505644564#6 -505644564#5 -505644564#4 -505644564#2 -505644564#1 -505644564#0 110526118#1 110526118#2 110526118#3 110526118#6 110526118#8 110526118#9 110526118#10 110526118#12 110526118#13 110526118#15 110526118#16 110526118#17 221195129#22 221195129#23 221195129#24 221195129#26 221195129#28 221195129#30 221195129#31 221195129#32 221195129#33 221195129#34 221195129#35 221195129#38 221195129#39 221195129#40 158978976#1 158978976#2 158978976#3 158978976#4 158978976#6 62080970#1 62080970#2 203315542#0 -474788300#0 -475037306#7 -475037306#6 -475037306#5 -475037306#4 -475037306#3 -475037306#2 -475037306#1 -475037306#0"/>
    </vehicle>
    <vehicle id="6114" type="passenger" depart="24.00" departSpeed="max">
        <route edges="-183946735#1 -183946735#0 -183840100#4 -183840100#1 866318725#1 311576774 732411491 866318724 243908725#0 243908725#2 243908725#3 243908725#4 243908725#5 243908725#6 243908725#7 461206602 732411488 732411487 882789874#0 244421758#2 244421758#3 37099791#0 37099791#1 37099791#3 449379851#1 413955653#10 413955653#11 -330466878#17 -330466878#16 -330466878#14 -330466878#9 -330466878#8 -330466878#7 -330466878#5 -330466878#4 -330466878#3 -330466878#1 -172356275#2 -172356275#1 23766390#1 23766390#2 23766390#3 23766390#4 23766390#7 23766390#8 23766390#9 23766390#10 23766390#12 23766390#13 23766392#0 23766392#2 23766392#3 23766392#4 23766392#5 23766392#7 23766392#8 23766392#9 23766392#10 23766392#13 23766392#16 23766392#17 23766392#18 23766392#19 23766397#0 23766397#1 23766397#2 23766397#3 23766397#4 23766397#6 236367442#0 236367442#1 236367442#2 236367442#3 236367442#4 236367442#5 316690652#0 316690652#1 316690652#2 316690652#3 1257895196#0 1257895199 1257895197#0 1257895197#1 1257895197#2 1257895197#3 1257895197#4 1257895197#5 158758847#1 158758847#2 158758847#4 158758847#5 158758847#6 -505644564#11 -505644564#10 -505644564#9 -505644564#6 -505644564#5 -505644564#4 -505644564#2 -505644564#1 -505644564#0 110526118#1 110526118#2 110526118#3 110526118#6 110526118#8 110526118#9 110526118#10 110526118#12 110526118#13 110526118#15 110526118#16 110526118#17 221195129#22 221195129#23 221195129#24 221195129#26 221195129#28 221195129#30 221195129#31 221195129#32 221195129#33 221195129#34 221195129#35 221195129#38 221195129#39 221195129#40 158978976#1 158978976#2 158978976#3 158978976#4 158978976#6 62080970#1 62080970#2 203315542#0 -474788300#0 -475037306#7 -475037306#6 -475037306#5 -475037306#4 -475037306#3 -475037306#2 -475037306#1 -475037306#0"/>
    </vehicle>
    <vehicle id="6115" type="passenger" depart="25.00" departSpeed="max">