<?xml version="1.0" ?>
<routes xmlns:xsi="http://www.w3.org/2001/XMLSchema-instance" xsi:noNamespaceSchemaLocation="http://sumo.dlr.de/xsd/routes_file.xsd">
    <vehicle id="4001" type="passenger" depart="1.6">
        <route edges="454329113 252494919#0 252494919#1 252494919#2 252494919#4 252494917 159118950#1 159118950#2 159118950#3 1076843335 696614541#0 696614541#1 696614541#2-AddedOnRampEdge 696614541#2 324318768 51813002 51813011#0 51813011#1 51813011#2 51813011#4 51813011#5 793234608 506599434#0 506599434#1 506599434#2 506599434#3 404179546 1070996019 52907067 1241641166 1241641159 1241641167 1070996017 1070996018 51272312#0 317406911#1 317406911#2 317406911#3 317406911#4 317406911#5 317406911#6 317406911#7 51354478#7 51354478#8 557564466#0 402684154"/>
    </vehicle>
    <vehicle id="4002" type="passenger" depart="1.6">
        <route edges="420466836 -198352408 23766960#6 23766960#8 23766960#9 23766960#10 158964733 158964730#0 158964730#1 158964730#4 158964730#6 158964730#7 158964730#8 158964730#9 158964730#11 158964730#12 158964730#13 158964730#14 311576783#2 311576783#3 311576783#4 311576783#7 311576783#8 311576783#9 311576783#10 311139736#1 311576784#0 311576784#2 189005460#1 189005460#2 189005460#5 189005460#6 311576785#1 49788433#0 49788433#3 49788433#4 404179546 1070996019 52907067 1241641166 1241641159 1241641167 1070996017 1070996018 51272312#0 311438968#1 311438968#4 51272319#2 51272319#3 51272319#4 51272319#5 51272319#6 51272319#9 51272319#10 51272319#11 51821757#0 51821757#1 772891695#13 772891695#14 772891695#15 772891695#0 772891695#1 772891695#2 1126953800#0 1126953800#1 51272317#1 51272317#2 51272317#5 51272317#6 51272317#7 51272317#8 -327528743#11 -327528743#8 -327528743#5 -327528743#2 -327528743#1 232361463#1 232361463#2 232361463#3 51268670#10 -377574283#4 -377574283#3"/>
    </vehicle>
    <vehicle id="4003" type="passenger" depart="1.6">
        <route edges="311576783#10 311139734#2 311139734#3 311139734#4 311139734#7 311139734#8 311139734#9 311139734#11 311139734#12 1230559864 160435114#0 160435114#1 984753539#0 984753539#1 330461425#0 330461425#1 330461425#4 330461425#5 330461425#8 160435118 160125697#0 160125697#1 160125697#2 1188237787#0 1188237787#1 1188237787#3 454329113 252494919#0 252494919#1 77998958#0 77998958#1 77998955#3 77998955#6"/>
    </vehicle>
    <vehicle id="4004" type="passenger" depart="1.6">
        <route edges="-72581700#2 -72581700#1 72451526#1 72451526#2 -72452250#5 -72452250#4 -72452250#2 -72452250#1 311882379#3 311882379#4 75258768 75258777#0 984753536#0 984753536#1 317833366#0 317833366#1 317833366#2 317833366#3 317833366#4 317833366#5 196959640 1230559862 288354567#0 288354567#2 288354567#3 288354567#6 288354567#7 288354567#8 287735322#2 287735322#3 287735322#4 287735322#7 287735322#8 244247467 287735321#0 287735321#1 287735321#4 287735321#6 330327012#0 330327012#3 330327012#4 23759512#2 244247462#0 244247462#1 244247462#4 244247462#5 244247462#6 244247462#7 244247462#8 1257895205#0 1257895205#1 1257895205#2 287735324#0 287735324#1 243901348#0 243901348#1 243901348#3 243901348#4 243901348#5 243901348#6 311359937#0 311359937#1 311359937#2 311359937#3 311359937#4 311359937#5 311359937#7 311359937#8 311359937#9 311359937#10 311359937#11 311359937#12 311359937#13 311359937#14 311359937#15 311359937#17 311359937#18 311359937#20 311359937#21 311359937#22 311359937#23 413955653#1 413955653#2 413955653#3 413955653#6 413955653#8 413955653#10 413955653#11 413955653#12 413955653#13 160307899#1 160307899#2 461206603#1 461206604#1 241536947#0 241536947#1 241536947#2 241536947#3 241536947#5 241536947#6 241536947#7 732411485 732411490 732411489 243908724#0 243908724#1 407206572#1 407206572#4 407206572#6 184723339#1 184723339#2"/>
    </vehicle>
    <vehicle id="4005" type="passenger" depart="1.6">
        <route edges="-255891223 206134505#3 -316690655#2 28017818#1 173012839#0 173012839#1 173012839#2 173012839#3 173012835#1 173012838#1 173030662#0 173030662#1 316690652#0 316690652#1 316690652#2 316690652#3 1257895196#0 -266057208#10 -266057208#9 -266057208#8 -266057208#5 -266057208#4 -266057208#3 -266057208#2 -266057208#1 -266057208#0 236378104#0 243901348#0 243901348#1 243901348#3 243901348#4 243901348#5 243901348#6 311359944#1 311359943#1 311359943#4 48769264#1 48769264#2 48769264#3 48769264#4 442788100#0 442788100#1 48769273#0 48769273#1-AddedOnRampEdge 48769273#1"/>
    </vehicle>
    <vehicle id="4006" type="passenger" depart="1.6">
        <route edges="1230559869#0 1230559870 781806472 686241189 311882379#1 311882379#2 311882379#3 311882379#4 75258768 75258777#0 984753536#0 984753536#1 317833366#0 317833366#1 317833366#2 317833366#3 317833366#4 60443730#0 60443730#1 60443730#2 330461426#1 330461420#1 330461420#4 101898901#1 1079011031#2 1079011032#1 1079011033#0 159059623#2 244450532#0 244450534#1 244450534#4 244450534#5 244450534#6 244450534#7 244450534#9 244450534#10 244450533#0 244450533#1 244450533#5 244450533#6 404179546 1070996019 52907067 1241641166 1241641159 1241641167 1070996017 1070996018 51272312#0 311438968#1 311438968#4 313235569#1 313235569#2 313235569#4 313235569#6 313235569#7 313235569#8 313235569#11 313235569#12 264427427#0 260789418#0 260789418#1 260789418#2"/>
    </vehicle>
    <vehicle id="4007" type="passenger" depart="1.6">
        <route edges="203384035 203384056#1 203384060#2 203384060#3 330361184#0 330361184#1 158917944#4 158917944#5 158917944#6 158917944#7 158917944#8 158917944#9 244246719#0 244246719#2 244246719#3 244246719#5 244246719#6 244246719#8 244246719#9 -505644564#11 -505644564#10 209701729 330460078#0 330460078#1 -209696189#2 -209696189#0 -23760430#2 -23760430#1 244247466#4 244247466#5 244247466#6 330327011#0 330327011#1 330327011#3 330327011#5 330327011#6 288522785 160435117#1 160435117#2 160435117#5 311576777#0 311139734#2 311139734#3 311139734#4 311139734#7 311139734#8 311139734#9 311139734#11 311139734#12 1230559864 248431400#0 248431400#1 248431400#2 248431400#3 248431400#4 79190859#0 79190859#1 79190859#3 79190859#5 79190859#6 79190859#8 79190859#9 79190859#10 79190859#13 79190859#17 79190859#18 79190859#19 79190859#20 79190859#23 79190859#26 79190859#29 79190859#30 79190859#31 252494929#8 51813025 51812992#0 51812992#1 -51813043#9 -51813043#8 -51813043#7 -51813043#5 75829500#0 75829500#1 244450411#6 244450411#8 244450411#9 244450411#12 244450411#16 244450411#17 244450411#18 244450411#20 244450411#22 244450411#25 319203389#1 319203389#2 781806471 75717910#0 75717910#1 75717910#5 75717910#7 75717910#10 75717910#11 75717910#13 75717910#17 75717910#18 75717910#21 319203386#2 335233760#1 335233760#2 335233760#5 335233760#6"/>
    </vehicle>
    <vehicle id="4008" type="passenger" depart="1.6">
        <route edges="28555661#3 184723338#1 184723338#2 184723337#1 241811766#0 241811766#1 241811766#2 241811766#3 407206572#1 407206572#4 407206572#6 407206572#9 407206572#12 407206572#13 407206572#14 866318728#1 866318728#2 137317907#1 137317904#1 338929664 779271019 779271001#0 779271001#1 137317902 137317913 198589897#0 198589897#1 198589897#2 198589897#3 198589897#4 198589897#5 198589897#6 198589896 264859963 506316028#0 506316028#1 506316028#2 1015062349#1 506599424#0 506599424#1 506599424#2 506599424#3 238707591#0 238707591#1 238707591#2"/>
    </vehicle>
    <vehicle id="4009" type="passenger" depart="1.6">
        <route edges="103534039#2 103534039#3 103532303#0 103532303#1 103532303#2 103533006#1 103533006#2 103533006#3 103533006#5 103533006#8 103533006#9 103533006#10 103533006#11 144500732#8 144500732#11 -1059586393#7 -1059586393#6 -1059586393#5 -1059586393#4 -1059586393#1 -1059586393#0 506599429#1 506599429#3 506599429#5 506599429#7 311964637#1 311964637#2 311964637#3 311964637#5 287735325#1 1241641160 1241641161 51272313 401628856 404179546 159118865#0 159118865#1 793234609#1 793234609#2 506599431#0 506599431#1 506599431#2 506599431#3 506599431#3-AddedOffRampEdge 911605212#0 911605212#2 911605212#3 26790156#0 26790156#1 26790156#2 1257895204#0 1257895204#1 324294403#0 324294403#1 449379853#0 449379853#1 449379853#2 449379853#3 158758845#0"/>
    </vehicle>
    <vehicle id="4010" type="passenger" depart="1.6">
        <route edges="23766386#16 23766386#17 449379867#0 449379867#1 449379867#2 449379850#0 449379850#1 449379851#1 413955653#10 413955653#11 -330466878#17 -330466878#16 -330466878#14 -330466878#9 -330466878#8 -330466878#7 -330466878#5 -330466878#4 -330466878#3 -330466878#1 -172356275#2 -172356275#1 23766390#1 23766390#2 23766390#3 23766390#4 23766390#7 23766390#8 23766390#9 23766390#10 23766390#12 23766390#13 23766392#0 23766392#2 23766392#3 23766392#4 23766392#5 23766392#7 23766392#8 23766392#9 23766392#10 23766392#13 23766392#16 23766392#17 23766392#18 242343327#0 -242343327#0"/>
    </vehicle>
    <vehicle id="4011" type="passenger" depart="1.6">
        <route edges="-690717155#0 690717156 98726048#0 -640946110#1 338923679#1 338923679#4 241811786#1 241811786#2 243891935#1 28555484#1 28555484#4 28555484#7 28555484#10 28555484#11 449379869#0 449379869#1 449379869#2 449379869#3 23766386#17 449379870#0 449379870#1 449379870#2 24836054#2 449379860#0 449379860#1 449379860#2 501774054 401628858#0 442788100#1 48769273#0 48769273#1-AddedOnRampEdge 48769273#1 48769273#2 324294400 324294400-AddedOffRampEdge 324294395#0 324294395#1 324294395#2 1076843359 1076843358 1076843375#0 1076843375#1 1076843375#2 51813018#0 51813018#1 51813018#2 454931329#0-AddedOnRampEdge 454931329#0 454931329#2 252494929#2 252494929#3 252494929#4 252494929#5 252494929#8 51813025 51812992#0 51812992#1 -51813043#9 -51813043#8 -51813043#7 -51813043#5 75829500#0 75829500#1 244450411#6 244450411#8 244450411#9 244450411#12 244450411#16 244450411#17 244450411#18 244450411#20 244450411#22 244450411#25 319203389#1 319203389#2 781806471 75717910#0 75717910#1 75717910#5 75717910#7 75717910#10 75717910#11 75717910#13 75717910#17 75717910#18 75717910#21 319203386#2 335233773#1 335233773#2 335233773#3 335233774#0 335233774#1 335233774#2 335233774#3"/>
    </vehicle>
    <vehicle id="4012" type="passenger" depart="1.6">
        <route edges="330466886#1 330466886#4 330466886#5 241811786#2 243891935#1 28555484#1 28555484#4 28555484#7 28555484#10 28555484#11 449379871 733033728#0 733033728#1 733033728#2 449379870#0 449379870#1 449379870#2 449379856#0 449379856#1 449379856#2 442788100#0 442788100#1 48769273#0 48769273#1-AddedOnRampEdge 48769273#1 48769273#2 324294400 324294400-AddedOffRampEdge 324294395#0 324294395#1 324294395#2 1076843359 1076843358 1076843375#0 1076843375#1 1076843375#2 159119087 159119081#7 159119081#8 159119081#9 159119081#10 159119081#11 159119081#12 159119081#13 159119081#14 159119081#15 159119081#16 51813024#6 454931328 385290826 454329113 252494919#0"/>
    </vehicle>
    <vehicle id="4013" type="passenger" depart="1.6">
        <route edges="308171722#1 335233758#3 335233758#4 319203388#2 319203388#5 319203388#6 319203388#9 319203388#11 319203388#12 319203388#15 319203388#17 319203388#21 319203388#22 686241189 311882379#1 311882379#2 311882379#3 311882379#4 75258768 75258777#0 984753536#0 984753536#1 317833366#0 317833366#1 317833366#2 317833366#3 317833366#4 317833366#5 196959640 1230559862 288354567#0 288354567#2 288354567#3 288354567#6 288354567#7 288354567#8 287735322#2 287735322#3 287735322#4 287735322#7 287735322#8 244247467 287735321#0 287735321#1 -208366773#0 208366772#2 -158716065#1 -158716065#0 -158624871#5 -158624871#2 -158624871#1 -158624871#0"/>
    </vehicle>
    <vehicle id="4014" type="passenger" depart="1.6">
        <route edges="316690655#8 316690655#9 316690655#10 1257895198#1 1257895198#2 1257895198#5 1257895198#6 -266064126#9 206948791#1 206948791#2 206948791#3 244246719#3 244246719#5 244246719#6 244246719#8 244246719#9 313235564 313235564-AddedOffRampEdge 158917979#0 158917979#2 244247466#0 244247466#1 244247466#2 244247466#4 244247466#5 244247466#6 330327011#0 330327011#1 330327011#3 330327011#5 330327011#6 288522785 190680665#0 190680665#1 190680665#2 190680665#3 -190680399#2 -190680399#1 -190680399#0 60443722#1 60443722#2 60443722#3 60443722#4 60443722#5 60443722#7 60443722#8 60443722#9 60443722#11 -60443718#2 -60443718#1 1079011036#2 1079011029#0 1079011030#1 1079011031#0 1079011031#2 1079011032#1 1079011033#0 1079011034#1 1079011035#0 1079011035#1 -244450531#15 -244450531#11 -244450531#9 -244450531#8 -244450531#7 159119370#0 159119370#1 159119370#4 159119370#5 159119370#7 77998955#6 77998955#7 77998955#7-AddedOffRampEdge 77998955#8 77998955#9 77998955#10 1076843375#2 51813018#0 51813018#1 51813018#2 454931329#0-AddedOnRampEdge 454931329#0 454931329#2 454931329#3 454931328 385290826 454329113 252494919#0 252494919#1 252494919#2 252494919#4 78138168 -159933540 159933549 252494908-AddedOnRampEdge 252494908"/>
    </vehicle>
    <vehicle id="4015" type="passenger" depart="1.6">
        <route edges="48793398#2 324318768 1076843337 1076843336 506599431#0 506599431#1 506599431#2 506599431#3 506599431#3-AddedOffRampEdge 911605212#0 911605212#2 449379855 449379865#0 449379865#1 449379865#2 449379852#0 449379852#1 449379852#2 449379867#0 449379867#1 449379867#2 449379850#0 449379850#1 449379851#1 413955653#10 413955653#11 413955653#12 413955653#13 160307899#1 160307899#2 461206603#1 461206604#1 241536947#0 241536947#1 241536947#2 241536947#3 241536947#5 241536947#6 241536947#7 732411485 732411490 732411489 243908724#0 243908724#1 407206572#1 407206572#4"/>
    </vehicle>
    <vehicle id="4016" type="passenger" depart="1.6">
        <route edges="261324532 -190680399#0 60443722#1 60443722#2 60443722#3 60443722#4 60443722#5 60443722#7 60443722#8 60443722#9 60443722#11 101897574#1 101897574#4 101897574#7 101897574#8 101897574#10 330461425#8 160435118 160125697#0 160125697#1 160125697#2 1188237787#0 1188237787#1 1188237787#3 454329113 252494919#0 252494919#1 252494919#2 252494919#4 252494917"/>
    </vehicle>
    <vehicle id="4017" type="passenger" depart="1.6">
        <route edges="51813010#10 51813010#11 793234603 51813023 506599433#0 506599433#1 506599433#2 506599433#3 506599433#4 244618587#1 244618587#2 326352594#1 -244450505#14 -244450505#13 -244450505#12 -244450505#11 -244450505#9"/>
    </vehicle>
    <vehicle id="4018" type="passenger" depart="1.6">
        <route edges="324294395#0 324294395#1 324294395#2 1076843359 1076843358 1076843375#0 1076843375#1 1076843375#2 159118950#1 159118950#2 159118950#3 1076843335 696614541#0 696614541#1 696614541#2-AddedOnRampEdge 696614541#2 324318768 1076843337 1076843336 506599431#0 506599431#1 506599431#2 506599431#3 506599431#3-AddedOffRampEdge 911605212#0 911605212#2 911605212#3 26790156#0 26790156#1 26790156#2 1257895204#0 1257895204#1 324294403#0 324294403#1 449379853#0 449379853#1 449379853#2 449379853#3 449379853#4 449379853#5 449379853#6 244421762#0 244421762#1 244421762#2 -449395545#1 449379850#0 449379850#1 37099791#4 37099791#6"/>
    </vehicle>
    <vehicle id="4019" type="passenger" depart="1.6">
        <route edges="78380834 78380844#0 78380844#1 62080904#1 62080904#2 62080904#3 62080904#4 62080904#5 62080904#6 288522784#1 288522784#2 288522784#5 288522784#8 288522784#9 288522784#12 288522784#14 288522784#15 288522784#16 288522784#17 914079635#0 23766960#1 23766960#2 23766960#3 23766960#4 23766960#5 23766960#6 23766960#8 23766960#9 23766960#10 158964733 158964730#0"/>
    </vehicle>
    <vehicle id="4020" type="passenger" depart="1.6">
        <route edges="252494919#1 252494919#2 252494919#4 252494917 159118950#1 159118950#2 159118950#3 1076843335 696614541#0 696614541#1 696614541#2-AddedOnRampEdge 696614541#2 324318768 1076843337 1076843336 506599431#0 506599431#1 506599431#2 506599431#3 506599431#3-AddedOffRampEdge 911605212#0 911605212#2 911605212#3 449379866#0 449379866#1 449379866#2 23759709#1 23759709#2 23759709#4 23759709#5 23759709#6 401628857#0 311359937#0 311359937#1 311359937#2 -173001718#3"/>
    </vehicle>
    <vehicle id="4021" type="passenger" depart="1.6">
        <route edges="266063761#0 266063761#3 266063761#5 316690655#2 316690655#5 316690655#7 316690655#8 316690655#9 316690655#10 1257895198#1 1257895198#2 1257895198#5 1257895198#6 266063760#0 266063760#1 266063760#2 266063760#3 244246719#0 244246719#2 244246719#3 244246719#5 244246719#6 244246719#8 244246719#9 313235564 313235564-AddedOffRampEdge 158917979#0 158917979#2 244247466#0 244247466#1 244247466#2 244247466#4 244247466#5 244247466#6 330327011#0 330327011#1 330327011#3 330327011#5 330327011#6 288522785 160435117#1 160435117#2 160435117#5 311576777#0 311139734#2 311139734#3 311139734#4 311139734#7 311139734#8 311139734#9 311139734#11 311139734#12 1230559864 248431400#0 248431400#1 248431400#2 248431400#3 248431400#4 79190859#0 79190859#1 79190859#3 79190859#5 79190859#6 79190859#8 79190859#9 79190859#10 79190859#13 79190859#17 79190859#18 79190859#19 79190859#20 79190859#23 79190859#26 79190859#29 79190859#30 79190859#31 51813024#4 51813024#5 51813024#6 454931328 -1188237786#2 -1188237786#0 -60443721 160125711 454931326 80117331 1188236156"/>
    </vehicle>
    <vehicle id="4022" type="passenger" depart="1.6">
        <route edges="-349858025#3 -349858025#1 -349858025#0 -381892612#3 -381892612#2 -381892612#1 -75844230#1 -75844230#0 381892608 -381892607 696614541#1 696614541#2-AddedOnRampEdge 696614541#2 324318768 1076843337 1076843336 506599431#0 506599431#1 506599431#2 506599431#3 506599431#3-AddedOffRampEdge 911605212#0 911605212#2 911605212#3 449379866#0 449379866#1 449379866#2 324294424#0"/>
    </vehicle>
    <vehicle id="4023" type="passenger" depart="1.6">
        <route edges="-340138927#1 -75844318#10 -75844318#8 -75844318#7 -75844318#6 -75844318#4 -75844318#3 -75844318#2 -75844318#1 -75844318#0 75258721#0 75258721#1 75258721#4 -80836670 317833366#1 317833366#2 317833366#3 317833366#4 317833366#5 196959640 1230559862 288354567#0 288354567#2 288354567#3 288354567#6 288354567#7 288354567#8 311139736#1 311576784#0 311576784#2 189005460#1 261324533#0 261324533#1 261324533#2"/>
    </vehicle>
    <vehicle id="4024" type="passenger" depart="1.6">
        <route edges="-492566966 78380844#1 28727304#0 28727304#1 552375504#1-AddedOnRampEdge 552375504#1 552375504#1-AddedOffRampEdge 552375500 160435107 188722640#0 188722640#1 188722640#2 188722640#3 188587032#14 188587032#15 188722645#1 188722645#2 188722645#3 1074594861 1074594862#1 75258721#4 75258721#5 75258721#6 317833361 317833373#1 75367779 30620479#0 30620479#1-AddedOnRampEdge 30620479#1 311882379#1 311882379#2 311882379#3 72685016#0 72685016#2 -72581708#0 75829490#0 75829490#1 -75829484#8 -75829484#7"/>
    </vehicle>
    <vehicle id="4025" type="passenger" depart="1.6">
        <route edges="78380844#0 78380844#1 28727304#0 28727304#1 552375504#1-AddedOnRampEdge 552375504#1 552375504#1-AddedOffRampEdge 552375500 160435107 196960876 1230559863 1230559864 160435114#0 160435114#1 984753539#0 984753539#1 -60443730#2 -60443730#1 248431400#1 248431400#2 248431400#3 248431400#4 317833373#1 75367779 30620479#0 30620479#1-AddedOnRampEdge 30620479#1 311882379#1 311882379#2 72452250#1 72452250#2 72452250#4 71324898#2 71324898#5 72581708#6 72581708#7"/>
    </vehicle>
    <vehicle id="4026" type="passenger" depart="1.6">
        <route edges="78380844#0 78380844#1 28727304#0 28727304#1 552375504#1-AddedOnRampEdge 552375504#1 552375504#1-AddedOffRampEdge 552375500 160435107 196960876 1230559863 1230559864 248431400#0 248431400#1 248431400#2 248431400#3 248431400#4 317833373#1 75367779 30620479#0 30620479#1-AddedOnRampEdge 30620479#1 311882379#1 311882379#2 72452250#1 72452250#2 72452250#4 71324898#2 71324898#5 72581708#6 72581708#7"/>
    </vehicle>
    <vehicle id="4027" type="passenger" depart="1.6">
        <route edges="-62080970#5 -62080970#2 -62080970#1 288522784#12 288522784#14 288522784#15 288522784#16 288522784#17 914079635#0 23766960#1 23766960#2 23766960#3 23766960#4 23766960#5 23766960#6 23766960#8 23766960#9 23766960#10 158964733 158964730#0 158964730#1 158964730#4 158964730#6 158964730#7 158964730#8 158964730#9 158964730#11 158964730#12 158964730#13 158964730#14 311576783#2 311576783#3 311576783#4 311576783#7 311576783#8 243905113#1 287735322#3 287735322#4 287735322#7 287735322#8 244247467 287735321#0 287735321#1 -208366773#0 208366772#2 -158716065#1"/>
    </vehicle>
    <vehicle id="4028" type="passenger" depart="1.6">
        <route edges="330461418#3 330461418#4 -158758843#0 -158758846#0 -52907072#2 -52907072#0 -404179545#1 404179546 159118865#0 159118865#1 793234609#1 793234609#2 506599431#0 506599431#1 506599431#2 506599431#3"/>
    </vehicle>
    <vehicle id="4029" type="passenger" depart="1.6">
        <route edges="78380834 78380844#0 78380844#1 28727304#0 28727304#1 552375504#1-AddedOnRampEdge 552375504#1 552375504#1-AddedOffRampEdge 159119612 159119612-AddedOffRampEdge 1074594873 1074594867 78050810 160125697#0 160125697#1 160125697#2 1188237787#0 78138169#0 78138169#1 252398634#2 1076843340#0 -244450531#15 -244450531#11 -244450531#9 -244450531#8 -244450531#7 -244450531#5 -244450531#2"/>
    </vehicle>
    <vehicle id="4030" type="passenger" depart="1.6">
        <route edges="244618582#7 160307897#7 51813011#0 51813011#1 51813011#2 51813011#4 51813011#5 793234608 506599434#0 506599434#1 506599434#2 506599434#3 52907069#1 52907069#2 52907069#5 52907069#6 52907069#7 75258707#1 75258707#2 75258707#5 75258707#6 75258707#9 75258707#11 75258707#12 75258707#13 75258655#1 75258655#2 75258655#3 75258655#6 75258655#7 311860250#0 311860250#1 311860250#2 311860250#3 311860250#6 311860250#7 311860250#8 311860250#9 311860250#10 311860250#12 311860250#13 311860250#14 311860250#17 311860250#18 158964735 158964745#0 158964745#1 158964745#2 158964745#3 158964745#4 158964745#7 158964745#8 243903726#1 243903726#2 158978976#2 158978976#3 158978976#4 158978976#6 158978976#9 158978976#10 158978976#13 -197557010 195673600#2"/>
    </vehicle>
    <vehicle id="4031" type="passenger" depart="1.6">
        <route edges="159936448 819000003#1 159060551#5 407206572#12 407206572#13 407206572#14 866318728#1 866318728#2 137317907#1 137317904#1 338929664 779271019 779271001#0 779271001#1 137317902 137317913 198589897#0 198589897#1 198589897#2 198589897#3 198589897#4 198589897#5 198589897#6 198589896 772891698 264859962#0 264859962#1 264859962#2 264859962#3 264859962#4 264859962#5 264859962#6 291325259#1 291325259#4 291325259#5 375408687#2"/>
    </vehicle>
    <vehicle id="4032" type="passenger" depart="1.6">
        <route edges="324294395#0 324294395#1 324294395#2 1076843359 1076843358 1076843375#0 1076843375#1 1076843375#2 159118950#1 159118950#2 159118950#3 1076843335 696614541#0 696614541#1 696614541#2-AddedOnRampEdge 696614541#2 324318768 51813002 51813011#0 51813011#1 51813011#2 51813011#4 51813011#5 793234608 793234603 48769268#1 501772317#1 252398635#0 252398635#1 252398635#3 252398635#4 252398635#6 442790073#0 442790073#1 242318960 -26787033#3 -26787033#1 449379866#2 324294424#0 324294424#1 324294424#2 816944389#1 816944389#2 324294428#1 324294428#3 324294428#4 324294428#7 324294428#8 324294428#9 326352589#1 -244421761#4 -244421761#2 -244421761#1 -244421761#0 -449379868 449379867#0 449379867#1 449379867#2 449379850#0 449379850#1 37099791#4 37099791#6"/>
    </vehicle>
    <vehicle id="4033" type="passenger" depart="1.6">
        <route edges="1257895204#0 1257895204#1 324294403#0 324294403#1 449379853#0 449379853#1 449379853#2 449379853#3 449379853#4 449379853#5 449379853#6 244421762#0 244421762#1 244421762#2 -449395545#1 -449395545#0 449379874#0 449379874#1 449379874#2 449379874#5 449379874#6 449379874#8 449379874#9 449379874#10 449395543#1 241811772#1 241811772#4 -330466887#1 -183865665#0 600025435"/>
    </vehicle>
    <vehicle id="4034" type="passenger" depart="1.6">
        <route edges="454329113 252494919#0 252494919#1 252494919#2 252494919#4 252494917 159118950#1 159118950#2 159118950#3 1076843335 696614541#0 696614541#1 696614541#2-AddedOnRampEdge 696614541#2 324318768 51813002 51813011#0 51813011#1 51813011#2 51813011#4 51813011#5 793234608 793234603 48769268#1 501772317#1 252398635#0 252398635#1 252398635#3 252398635#4 252398635#6 442790073#0 442790073#1 242318960 -26787033#3 -26787033#1 449379866#2 324294424#0 324294424#1 324294424#2 158804865#1 158804865#2 158804865#3 1257895204#0 1257895204#1 324294403#0 324294403#1 449379853#0 449379853#1 449379853#2 449379853#3 449379853#4 449379853#5 449379853#6 -449379868 -23766386#18 -23766386#16 -23766386#15 -23766386#12 -158807847#1 -158807847#0 158807860#3 158807860#4"/>
    </vehicle>
    <vehicle id="4035" type="passenger" depart="1.6">
        <route edges="158964745#4 195673600#11 23766960#4 23766960#5 23766960#6 23766960#8 23766960#9 23766960#10 158964733 158964730#0 158964730#1 158964730#4 158964730#6 158964730#7 158964730#8 158964730#9 158964730#11 158964730#12 158964730#13 158964730#14 311576783#2 311576783#3 311576783#4 311576783#7 311576783#8 311576783#9 311576783#10 311139734#2 311139734#3 311139734#4 311139734#7 311139734#8 311139734#9 311139734#11 311139734#12 1230559864 160435115#0 160435115#1 -60443718#7 -60443718#4 -60443718#3 -60443718#2 -60443718#1 -1079011023#4 60443724#1 330461423#1 330461423#4 330461423#7"/>
    </vehicle>
    <vehicle id="4036" type="passenger" depart="1.6">
        <route edges="252494919#0 252494919#1 252494919#2 252494919#4 252494917 159118950#1 159118950#2 159118950#3 1076843335 696614541#0 696614541#1 696614541#2-AddedOnRampEdge 696614541#2 324318768 1076843337 1076843336 506599431#0 506599431#1 506599431#2 506599431#3 506599431#3-AddedOffRampEdge 911605212#0 911605212#2 911605212#3 449379866#0 449379866#1 449379866#2 23759709#1 23759709#2 23759709#4 23759709#5 23759709#6 401628857#0 793234602#1 793234602#3 243901667#0 243901667#1 243901667#2 243901667#4 243901667#5 243901667#7 243901667#8 -23766392#19 -23766392#18 -23766392#17 -23766392#16 -23766392#13 -23766392#10 -23766392#9 172358513#0 172358513#1 172358513#2 172358513#3 172358513#4 172358513#5"/>
    </vehicle>
    <vehicle id="4037" type="passenger" depart="1.6">
        <route edges="48769273#1 506599431#0 506599431#1 506599431#2 506599431#3 506599431#3-AddedOffRampEdge 911605212#0 338634180 442790073#3-AddedOnRampEdge 442790073#3 26790156#0 48769264#3 449379865#1 449379865#2 24836054#1 24836054#2 24836054#3 24836054#4-AddedOnRampEdge 24836054#4 730830603#0 244421755#1"/>
    </vehicle>
    <vehicle id="4038" type="passenger" depart="1.6">
        <route edges="183865668#1 330466886#4 330466886#5 241811786#2 310085609#1 310085609#2 310085609#5 310085611#1 461206603#1 461206604#1 241536947#0 241536947#1 241536947#2 241536947#3 241536947#5 241536947#6 241536947#7 732411485 33072357#0 33072357#1"/>
    </vehicle>
    <vehicle id="4039" type="passenger" depart="1.6">
        <route edges="442790073#3 26790156#0 48769264#3 48769264#4 442788100#0 442788100#1 48769269#1 911605211#0 911605211#1 911605211#2 911605210 252494932#0 252494932#3 252494932#4-AddedOnRampEdge 252494932#4 252494932#7 51813023 793234608 506599434#0 506599434#1 506599434#2 506599434#3 404179546 1070996019 52907067 1241641166 1241641159 1241641167 1070996017 1070996018 51272312#0 311438968#1 311438968#4 313235569#1 313235569#2 313235569#4 313235569#6 313235569#7 313235569#8 313235569#11 313235569#12 264427427#0 260789418#0 35928057#3 264410143#0 264410143#1 264410143#2 264410143#3 264410143#4 374332378#0 374332378#1 374332385#0 374332385#1 374332385#2 374332385#5 374332385#6 291325260#1 291325260#2 291325260#5 291325260#6 374332384#0"/>
    </vehicle>
    <vehicle id="4040" type="passenger" depart="1.6">
        <route edges="198589897#5 198589897#6 198589896 264859963 506316028#0 506316028#1 506316028#2 1015062344#0 1015062344#1 1015062348#0 506599423#1 506599423#2 506599423#3 264410144 506599428 311138396#0 311138396#1 311138396#2 311138396#3 506599429#1 506599429#3 506599429#5 506599429#7 311964637#1 311964637#2 311964637#3 311964637#5 287735325#1 1241641160 1241641161 51272313 401628856 404179546 159118865#0 159118865#1 48769268#1 501772317#1 252398635#0 252398635#1 252398635#3 252398635#4 252398635#6 442790073#0 442790073#1 442790073#2 442790073#3-AddedOnRampEdge 442790073#3 449379866#0 449379866#1 449379866#2 23759709#1 23759709#2 23759709#4 23759709#5 23759709#6 401628857#0 793234602#1 793234602#3 243901667#0 243901667#1 243901667#2 243901667#4 243901667#5 -26787974#20 -26787974#19 -26787974#18 -26787974#17 -242343327#4 -242343327#3 -242343327#2"/>
    </vehicle>
    <vehicle id="4041" type="passenger" depart="1.6">
        <route edges="319203388#11 319203388#12 319203388#15 319203388#17 319203388#21 319203388#22 686241189 311882379#1 311882379#2 311882379#3 311882379#4 75258768 75258777#0 984753536#0 984753536#1 317833366#0 317833366#1 317833366#2 317833366#3 317833366#4 317833366#5 196959640 1230559862 288354567#0 288354567#2 288354567#3 288354567#6 288354567#7 288354567#8 287735322#2 287735322#3 287735322#4 287735322#7 287735322#8 244247467 287735321#0 287735321#1 -208366773#0 208366772#2 -158716065#1 -158716065#0 -158624871#5 -158624871#2 -158624871#1 -158624871#0 -1257895203#12 -1257895203#11 -1257895203#10 -330305598#12 -330305598#10 -330305598#9 -330305598#8 -330305598#7 -330305598#5 330305598#5"/>
    </vehicle>
    <vehicle id="4042" type="passenger" depart="1.6">
        <route edges="-189781442#0 1229613905#0 1229613905#1 1229613905#2 -258599306#1 -258599306#0 -258599304#1 -258599304#0 -258599308#1 -258599308#0 -188722645#3 -188722645#2 -188722645#1 -188722645#0 -188587032#14 -188587032#13 -188587032#12 -188587032#11 -188587032#10 -262626110#4 -262626110#3 -262626110#1 188722648#1 188722638 330462872 288354567#7 288354567#8 311139736#1 311576784#0 311576784#2 60443722#1"/>
    </vehicle>
    <vehicle id="4043" type="passenger" depart="1.6">