<?xml version="1.0" ?>
<additional>
    <laneAreaDetector id="det_-1018687329#2_0" lane="-1018687329#2_0" pos="0.00" length="49.37" freq="25" file="detector_output.xml"/>
    <laneAreaDetector id="det_-1018687329#5_0" lane="-1018687329#5_0" pos="0.00" length="51.41" freq="25" file="detector_output.xml"/>
    <laneAreaDetector id="det_-1018687330#0_0" lane="-1018687330#0_0" pos="0.00" length="14.87" freq="25" file="detector_output.xml"/>
    <laneAreaDetector id="det_-101893167#0_0" lane="-101893167#0_0" pos="11.33" length="100.00" freq="25" file="detector_output.xml"/>
    <laneAreaDetector id="det_-101893519#1_0" lane="-101893519#1_0" pos="0.00" length="64.26" freq="25" file="detector_output.xml"/>
    <laneAreaDetector id="det_-101893519#4_0" lane="-101893519#4_0" pos="0.00" length="67.26" freq="25" file="detector_output.xml"/>
    <laneAreaDetector id="det_-101893519#7_0" lane="-101893519#7_0" pos="0.00" length="81.53" freq="25" file="detector_output.xml"/>
    <laneAreaDetector id="det_-101893555#1_0" lane="-101893555#1_0" pos="37.60" length="100.00" freq="25" file="detector_output.xml"/>
    <laneAreaDetector id="det_-101893560#1_0" lane="-101893560#1_0" pos="19.21" length="100.00" freq="25" file="detector_output.xml"/>
    <laneAreaDetector id="det_-101893560#2_0" lane="-101893560#2_0" pos="0.00" length="0.20" freq="25" file="detector_output.xml"/>
    <laneAreaDetector id="det_-101893560#4_0" lane="-101893560#4_0" pos="13.21" length="100.00" freq="25" file="detector_output.xml"/>
    <laneAreaDetector id="det_-101894851#1_0" lane="-101894851#1_0" pos="54.55" length="100.00" freq="25" file="detector_output.xml"/>
    <laneAreaDetector id="det_-101894851#10_0" lane="-101894851#10_0" pos="0.00" length="0.20" freq="25" file="detector_output.xml"/>
    <laneAreaDetector id="det_-101894851#11_0" lane="-101894851#11_0" pos="0.00" length="85.18" freq="25" file="detector_output.xml"/>
    <laneAreaDetector id="det_-101894851#12_0" lane="-101894851#12_0" pos="0.00" length="0.18" freq="25" file="detector_output.xml"/>
    <laneAreaDetector id="det_-101894851#14_0" lane="-101894851#14_0" pos="0.00" length="62.19" freq="25" file="detector_output.xml"/>
    <laneAreaDetector id="det_-101894851#15_0" lane="-101894851#15_0" pos="38.93" length="100.00" freq="25" file="detector_output.xml"/>
    <laneAreaDetector id="det_-101894851#18_0" lane="-101894851#18_0" pos="0.00" length="62.57" freq="25" file="detector_output.xml"/>
    <laneAreaDetector id="det_-101894851#19_0" lane="-101894851#19_0" pos="0.00" length="81.91" freq="25" file="detector_output.xml"/>
    <laneAreaDetector id="det_-101894851#2_0" lane="-101894851#2_0" pos="0.00" length="51.60" freq="25" file="detector_output.xml"/>
    <laneAreaDetector id="det_-101894851#3_0" lane="-101894851#3_0" pos="0.00" length="53.52" freq="25" file="detector_output.xml"/>
    <laneAreaDetector id="det_-101894851#8_0" lane="-101894851#8_0" pos="0.00" length="97.79" freq="25" file="detector_output.xml"/>
    <laneAreaDetector id="det_-101894927#1_0" lane="-101894927#1_0" pos="118.20" length="100.00" freq="25" file="detector_output.xml"/>
    <laneAreaDetector id="det_-101895798#1_0" lane="-101895798#1_0" pos="11.80" length="100.00" freq="25" file="detector_output.xml"/>
    <laneAreaDetector id="det_-101896234#1_0" lane="-101896234#1_0" pos="0.00" length="67.50" freq="25" file="detector_output.xml"/>
    <laneAreaDetector id="det_-101896234#4_0" lane="-101896234#4_0" pos="0.00" length="70.24" freq="25" file="detector_output.xml"/>
    <laneAreaDetector id="det_-101896832#1_0" lane="-101896832#1_0" pos="0.00" length="76.41" freq="25" file="detector_output.xml"/>
    <laneAreaDetector id="det_-101896832#4_0" lane="-101896832#4_0" pos="0.00" length="83.22" freq="25" file="detector_output.xml"/>
    <laneAreaDetector id="det_-101897224#1_0" lane="-101897224#1_0" pos="0.00" length="69.32" freq="25" file="detector_output.xml"/>
    <laneAreaDetector id="det_-101897224#4_0" lane="-101897224#4_0" pos="0.00" length="74.07" freq="25" file="detector_output.xml"/>
    <laneAreaDetector id="det_-101897574#1_0" lane="-101897574#1_0" pos="0.00" length="69.13" freq="25" file="detector_output.xml"/>
    <laneAreaDetector id="det_-101897574#10_0" lane="-101897574#10_0" pos="54.22" length="100.00" freq="25" file="detector_output.xml"/>
    <laneAreaDetector id="det_-101897574#4_0" lane="-101897574#4_0" pos="0.00" length="67.52" freq="25" file="detector_output.xml"/>
    <laneAreaDetector id="det_-101897574#7_0" lane="-101897574#7_0" pos="0.00" length="78.45" freq="25" file="detector_output.xml"/>
    <laneAreaDetector id="det_-101897574#8_0" lane="-101897574#8_0" pos="0.00" length="0.20" freq="25" file="detector_output.xml"/>
    <laneAreaDetector id="det_-101898194#1_0" lane="-101898194#1_0" pos="0.00" length="89.26" freq="25" file="detector_output.xml"/>
    <laneAreaDetector id="det_-101898194#4_0" lane="-101898194#4_0" pos="0.00" length="32.05" freq="25" file="detector_output.xml"/>
    <laneAreaDetector id="det_-101898198#1_0" lane="-101898198#1_0" pos="108.24" length="100.00" freq="25" file="detector_output.xml"/>
    <laneAreaDetector id="det_-101898420#1_0" lane="-101898420#1_0" pos="91.53" length="100.00" freq="25" file="detector_output.xml"/>
    <laneAreaDetector id="det_-101898505#1_0" lane="-101898505#1_0" pos="13.80" length="100.00" freq="25" file="detector_output.xml"/>
    <laneAreaDetector id="det_-101898505#4_0" lane="-101898505#4_0" pos="29.82" length="100.00" freq="25" file="detector_output.xml"/>
    <laneAreaDetector id="det_-101898564#1_0" lane="-101898564#1_0" pos="0.00" length="67.16" freq="25" file="detector_output.xml"/>
    <laneAreaDetector id="det_-101898564#2_0" lane="-101898564#2_0" pos="0.00" length="0.20" freq="25" file="detector_output.xml"/>
    <laneAreaDetector id="det_-101898714#1_0" lane="-101898714#1_0" pos="34.86" length="100.00" freq="25" file="detector_output.xml"/>
    <laneAreaDetector id="det_-101898714#2_0" lane="-101898714#2_0" pos="0.00" length="10.41" freq="25" file="detector_output.xml"/>
    <laneAreaDetector id="det_-101898714#3_0" lane="-101898714#3_0" pos="0.00" length="0.20" freq="25" file="detector_output.xml"/>
    <laneAreaDetector id="det_-101898896#0_0" lane="-101898896#0_0" pos="26.72" length="100.00" freq="25" file="detector_output.xml"/>
    <laneAreaDetector id="det_-101898896#3_0" lane="-101898896#3_0" pos="0.00" length="42.25" freq="25" file="detector_output.xml"/>
    <laneAreaDetector id="det_-101898896#6_0" lane="-101898896#6_0" pos="0.00" length="43.53" freq="25" file="detector_output.xml"/>
    <laneAreaDetector id="det_-101898896#9_0" lane="-101898896#9_0" pos="0.00" length="47.36" freq="25" file="detector_output.xml"/>
    <laneAreaDetector id="det_-101898897#0_0" lane="-101898897#0_0" pos="30.33" length="100.00" freq="25" file="detector_output.xml"/>
    <laneAreaDetector id="det_-101898897#3_0" lane="-101898897#3_0" pos="55.82" length="100.00" freq="25" file="detector_output.xml"/>
    <laneAreaDetector id="det_-101898897#6_0" lane="-101898897#6_0" pos="55.43" length="100.00" freq="25" file="detector_output.xml"/>
    <laneAreaDetector id="det_-101898898#0_0" lane="-101898898#0_0" pos="31.96" length="100.00" freq="25" file="detector_output.xml"/>
    <laneAreaDetector id="det_-101898898#3_0" lane="-101898898#3_0" pos="54.61" length="100.00" freq="25" file="detector_output.xml"/>
    <laneAreaDetector id="det_-101898898#5_0" lane="-101898898#5_0" pos="54.41" length="100.00" freq="25" file="detector_output.xml"/>
    <laneAreaDetector id="det_-101898899#0_0" lane="-101898899#0_0" pos="0.00" length="52.60" freq="25" file="detector_output.xml"/>
    <laneAreaDetector id="det_-101898899#1_0" lane="-101898899#1_0" pos="0.00" length="41.36" freq="25" file="detector_output.xml"/>
    <laneAreaDetector id="det_-101898899#3_0" lane="-101898899#3_0" pos="0.00" length="45.27" freq="25" file="detector_output.xml"/>
    <laneAreaDetector id="det_-101898899#6_0" lane="-101898899#6_0" pos="0.00" length="45.69" freq="25" file="detector_output.xml"/>
    <laneAreaDetector id="det_-101898900#1_0" lane="-101898900#1_0" pos="0.00" length="76.05" freq="25" file="detector_output.xml"/>
    <laneAreaDetector id="det_-101898900#4_0" lane="-101898900#4_0" pos="0.00" length="45.92" freq="25" file="detector_output.xml"/>
    <laneAreaDetector id="det_-101898900#7_0" lane="-101898900#7_0" pos="0.00" length="45.77" freq="25" file="detector_output.xml"/>
    <laneAreaDetector id="det_-101898901#1_0" lane="-101898901#1_0" pos="15.01" length="100.00" freq="25" file="detector_output.xml"/>
    <laneAreaDetector id="det_-101898902#0_0" lane="-101898902#0_0" pos="59.93" length="100.00" freq="25" file="detector_output.xml"/>
    <laneAreaDetector id="det_-103532303#0_0" lane="-103532303#0_0" pos="0.00" length="31.78" freq="25" file="detector_output.xml"/>
    <laneAreaDetector id="det_-103532303#1_0" lane="-103532303#1_0" pos="0.00" length="55.90" freq="25" file="detector_output.xml"/>
    <laneAreaDetector id="det_-103532303#2_0" lane="-103532303#2_0" pos="0.00" length="61.95" freq="25" file="detector_output.xml"/>
    <laneAreaDetector id="det_-103533006#1_0" lane="-103533006#1_0" pos="0.00" length="27.09" freq="25" file="detector_output.xml"/>
    <laneAreaDetector id="det_-103533006#10_0" lane="-103533006#10_0" pos="0.00" length="15.07" freq="25" file="detector_output.xml"/>
    <laneAreaDetector id="det_-103533006#11_0" lane="-103533006#11_0" pos="0.00" length="10.34" freq="25" file="detector_output.xml"/>
    <laneAreaDetector id="det_-103533006#2_0" lane="-103533006#2_0" pos="0.00" length="11.66" freq="25" file="detector_output.xml"/>
    <laneAreaDetector id="det_-103533006#3_0" lane="-103533006#3_0" pos="0.00" length="8.93" freq="25" file="detector_output.xml"/>
    <laneAreaDetector id="det_-103533006#5_0" lane="-103533006#5_0" pos="0.00" length="13.36" freq="25" file="detector_output.xml"/>
    <laneAreaDetector id="det_-103533006#8_0" lane="-103533006#8_0" pos="0.00" length="10.88" freq="25" file="detector_output.xml"/>
    <laneAreaDetector id="det_-103533006#9_0" lane="-103533006#9_0" pos="0.00" length="12.51" freq="25" file="detector_output.xml"/>
    <laneAreaDetector id="det_-103534039#2_0" lane="-103534039#2_0" pos="0.00" length="35.29" freq="25" file="detector_output.xml"/>
    <laneAreaDetector id="det_-103534039#3_0" lane="-103534039#3_0" pos="0.86" length="100.00" freq="25" file="detector_output.xml"/>
    <laneAreaDetector id="det_-1036712514#0_0" lane="-1036712514#0_0" pos="0.00" length="0.20" freq="25" file="detector_output.xml"/>
    <laneAreaDetector id="det_-1036712514#1_0" lane="-1036712514#1_0" pos="0.00" length="13.94" freq="25" file="detector_output.xml"/>
    <laneAreaDetector id="det_-1036712514#2_0" lane="-1036712514#2_0" pos="0.00" length="0.20" freq="25" file="detector_output.xml"/>
    <laneAreaDetector id="det_-1038718484_0" lane="-1038718484_0" pos="0.00" length="88.87" freq="25" file="detector_output.xml"/>
    <laneAreaDetector id="det_-1042128035#0_0" lane="-1042128035#0_0" pos="0.00" length="1.41" freq="25" file="detector_output.xml"/>
    <laneAreaDetector id="det_-1042128035#2_0" lane="-1042128035#2_0" pos="0.00" length="18.93" freq="25" file="detector_output.xml"/>
    <laneAreaDetector id="det_-1042128035#3_0" lane="-1042128035#3_0" pos="0.00" length="14.14" freq="25" file="detector_output.xml"/>
    <laneAreaDetector id="det_-1050961119_0" lane="-1050961119_0" pos="0.00" length="14.70" freq="25" file="detector_output.xml"/>
    <laneAreaDetector id="det_-105202894#0_0" lane="-105202894#0_0" pos="57.35" length="100.00" freq="25" file="detector_output.xml"/>
    <laneAreaDetector id="det_-105202894#3_0" lane="-105202894#3_0" pos="0.00" length="68.91" freq="25" file="detector_output.xml"/>
    <laneAreaDetector id="det_-105202900#0_0" lane="-105202900#0_0" pos="65.30" length="100.00" freq="25" file="detector_output.xml"/>
    <laneAreaDetector id="det_-105202900#1_0" lane="-105202900#1_0" pos="0.00" length="31.85" freq="25" file="detector_output.xml"/>
    <laneAreaDetector id="det_-105202900#2_0" lane="-105202900#2_0" pos="0.00" length="39.49" freq="25" file="detector_output.xml"/>
    <laneAreaDetector id="det_-105202900#3_0" lane="-105202900#3_0" pos="41.20" length="100.00" freq="25" file="detector_output.xml"/>
    <laneAreaDetector id="det_-105202900#4_0" lane="-105202900#4_0" pos="209.76" length="100.00" freq="25" file="detector_output.xml"/>
    <laneAreaDetector id="det_-105202900#5_0" lane="-105202900#5_0" pos="53.61" length="100.00" freq="25" file="detector_output.xml"/>
    <laneAreaDetector id="det_-105202902#1_0" lane="-105202902#1_0" pos="37.53" length="100.00" freq="25" file="detector_output.xml"/>
    <laneAreaDetector id="det_-1054512120#0_0" lane="-1054512120#0_0" pos="0.00" length="19.41" freq="25" file="detector_output.xml"/>
    <laneAreaDetector id="det_-1054512120#1_0" lane="-1054512120#1_0" pos="0.00" length="17.14" freq="25" file="detector_output.xml"/>
    <laneAreaDetector id="det_-1054512336_0" lane="-1054512336_0" pos="0.00" length="22.36" freq="25" file="detector_output.xml"/>
    <laneAreaDetector id="det_-1059586393#0_0" lane="-1059586393#0_0" pos="1.22" length="100.00" freq="25" file="detector_output.xml"/>
    <laneAreaDetector id="det_-1059586393#1_0" lane="-1059586393#1_0" pos="0.00" length="37.18" freq="25" file="detector_output.xml"/>
    <laneAreaDetector id="det_-1059586393#4_0" lane="-1059586393#4_0" pos="0.00" length="32.07" freq="25" file="detector_output.xml"/>
    <laneAreaDetector id="det_-1059586393#5_0" lane="-1059586393#5_0" pos="0.00" length="27.60" freq="25" file="detector_output.xml"/>
    <laneAreaDetector id="det_-1059586393#6_0" lane="-1059586393#6_0" pos="0.00" length="44.72" freq="25" file="detector_output.xml"/>
    <laneAreaDetector id="det_-1059586393#7_0" lane="-1059586393#7_0" pos="0.00" length="76.07" freq="25" file="detector_output.xml"/>
    <laneAreaDetector id="det_-1065485437#0_0" lane="-1065485437#0_0" pos="0.00" length="0.20" freq="25" file="detector_output.xml"/>
    <laneAreaDetector id="det_-1065485437#1_0" lane="-1065485437#1_0" pos="0.00" length="8.46" freq="25" file="detector_output.xml"/>
    <laneAreaDetector id="det_-1066079249_0" lane="-1066079249_0" pos="0.00" length="44.40" freq="25" file="detector_output.xml"/>
    <laneAreaDetector id="det_-1066080863_0" lane="-1066080863_0" pos="0.00" length="22.52" freq="25" file="detector_output.xml"/>
    <laneAreaDetector id="det_-1066080864_0" lane="-1066080864_0" pos="0.00" length="18.74" freq="25" file="detector_output.xml"/>
    <laneAreaDetector id="det_-1066092244#1_0" lane="-1066092244#1_0" pos="0.00" length="19.50" freq="25" file="detector_output.xml"/>
    <laneAreaDetector id="det_-1067871220#0_0" lane="-1067871220#0_0" pos="0.00" length="18.95" freq="25" file="detector_output.xml"/>
    <laneAreaDetector id="det_-1067871220#1_0" lane="-1067871220#1_0" pos="0.00" length="36.86" freq="25" file="detector_output.xml"/>
    <laneAreaDetector id="det_-1067871221_0" lane="-1067871221_0" pos="0.00" length="67.35" freq="25" file="detector_output.xml"/>
    <laneAreaDetector id="det_-1067871222_0" lane="-1067871222_0" pos="0.00" length="80.01" freq="25" file="detector_output.xml"/>
    <laneAreaDetector id="det_-1067871223_0" lane="-1067871223_0" pos="0.00" length="53.09" freq="25" file="detector_output.xml"/>
    <laneAreaDetector id="det_-1067871224_0" lane="-1067871224_0" pos="0.00" length="79.19" freq="25" file="detector_output.xml"/>
    <laneAreaDetector id="det_-1067871225_0" lane="-1067871225_0" pos="0.00" length="44.01" freq="25" file="detector_output.xml"/>
    <laneAreaDetector id="det_-1067871226_0" lane="-1067871226_0" pos="0.00" length="24.69" freq="25" file="detector_output.xml"/>
    <laneAreaDetector id="det_-1068999024#0_0" lane="-1068999024#0_0" pos="10.58" length="100.00" freq="25" file="detector_output.xml"/>
    <laneAreaDetector id="det_-1068999024#1_0" lane="-1068999024#1_0" pos="336.18" length="100.00" freq="25" file="detector_output.xml"/>
    <laneAreaDetector id="det_-1068999025#0_0" lane="-1068999025#0_0" pos="0.00" length="76.24" freq="25" file="detector_output.xml"/>
    <laneAreaDetector id="det_-1068999025#1_0" lane="-1068999025#1_0" pos="0.00" length="1.16" freq="25" file="detector_output.xml"/>
    <laneAreaDetector id="det_-1068999025#2_0" lane="-1068999025#2_0" pos="0.00" length="91.75" freq="25" file="detector_output.xml"/>
    <laneAreaDetector id="det_-1068999025#3_0" lane="-1068999025#3_0" pos="0.00" length="1.61" freq="25" file="detector_output.xml"/>
    <laneAreaDetector id="det_-1068999025#4_0" lane="-1068999025#4_0" pos="91.53" length="100.00" freq="25" file="detector_output.xml"/>
    <laneAreaDetector id="det_-1068999085_0" lane="-1068999085_0" pos="0.00" length="25.35" freq="25" file="detector_output.xml"/>
    <laneAreaDetector id="det_-1068999090_0" lane="-1068999090_0" pos="199.74" length="100.00" freq="25" file="detector_output.xml"/>
    <laneAreaDetector id="det_-1068999091#0_0" lane="-1068999091#0_0" pos="0.00" length="37.93" freq="25" file="detector_output.xml"/>
    <laneAreaDetector id="det_-1068999091#1_0" lane="-1068999091#1_0" pos="20.11" length="100.00" freq="25" file="detector_output.xml"/>
    <laneAreaDetector id="det_-1068999091#2_0" lane="-1068999091#2_0" pos="0.18" length="100.00" freq="25" file="detector_output.xml"/>
    <laneAreaDetector id="det_-1068999091#3_0" lane="-1068999091#3_0" pos="0.00" length="50.38" freq="25" file="detector_output.xml"/>
    <laneAreaDetector id="det_-1068999091#4_0" lane="-1068999091#4_0" pos="0.00" length="32.47" freq="25" file="detector_output.xml"/>
    <laneAreaDetector id="det_-1068999095#0_0" lane="-1068999095#0_0" pos="0.00" length="39.80" freq="25" file="detector_output.xml"/>
    <laneAreaDetector id="det_-1068999095#1_0" lane="-1068999095#1_0" pos="0.00" length="57.28" freq="25" file="detector_output.xml"/>
    <laneAreaDetector id="det_-1068999096_0" lane="-1068999096_0" pos="0.00" length="2.38" freq="25" file="detector_output.xml"/>
    <laneAreaDetector id="det_-1068999099#0_0" lane="-1068999099#0_0" pos="0.00" length="81.52" freq="25" file="detector_output.xml"/>
    <laneAreaDetector id="det_-1068999099#1_0" lane="-1068999099#1_0" pos="0.00" length="95.42" freq="25" file="detector_output.xml"/>
    <laneAreaDetector id="det_-1068999099#2_0" lane="-1068999099#2_0" pos="1.37" length="100.00" freq="25" file="detector_output.xml"/>
    <laneAreaDetector id="det_-1068999099#3_0" lane="-1068999099#3_0" pos="2.94" length="100.00" freq="25" file="detector_output.xml"/>
    <laneAreaDetector id="det_-1068999099#4_0" lane="-1068999099#4_0" pos="0.00" length="91.96" freq="25" file="detector_output.xml"/>
    <laneAreaDetector id="det_-1068999099#5_0" lane="-1068999099#5_0" pos="0.00" length="94.03" freq="25" file="detector_output.xml"/>
    <laneAreaDetector id="det_-1068999099#6_0" lane="-1068999099#6_0" pos="24.86" length="100.00" freq="25" file="detector_output.xml"/>
    <laneAreaDetector id="det_-1068999099#7_0" lane="-1068999099#7_0" pos="0.00" length="56.33" freq="25" file="detector_output.xml"/>
    <laneAreaDetector id="det_-1068999099#8_0" lane="-1068999099#8_0" pos="0.00" length="8.56" freq="25" file="detector_output.xml"/>
    <laneAreaDetector id="det_-1068999101#0_0" lane="-1068999101#0_0" pos="285.32" length="100.00" freq="25" file="detector_output.xml"/>
    <laneAreaDetector id="det_-1068999101#1_0" lane="-1068999101#1_0" pos="81.55" length="100.00" freq="25" file="detector_output.xml"/>
    <laneAreaDetector id="det_-1068999101#2_0" lane="-1068999101#2_0" pos="258.11" length="100.00" freq="25" file="detector_output.xml"/>
    <laneAreaDetector id="det_-1068999101#3_0" lane="-1068999101#3_0" pos="0.00" length="25.22" freq="25" file="detector_output.xml"/>
    <laneAreaDetector id="det_-1068999101#4_0" lane="-1068999101#4_0" pos="45.81" length="100.00" freq="25" file="detector_output.xml"/>
    <laneAreaDetector id="det_-1068999102_0" lane="-1068999102_0" pos="0.00" length="3.42" freq="25" file="detector_output.xml"/>
    <laneAreaDetector id="det_-1068999111#0_0" lane="-1068999111#0_0" pos="373.59" length="100.00" freq="25" file="detector_output.xml"/>
    <laneAreaDetector id="det_-1068999111#1_0" lane="-1068999111#1_0" pos="0.00" length="16.66" freq="25" file="detector_output.xml"/>
    <laneAreaDetector id="det_-1068999111#2_0" lane="-1068999111#2_0" pos="0.00" length="20.87" freq="25" file="detector_output.xml"/>
    <laneAreaDetector id="det_-1068999111#3_0" lane="-1068999111#3_0" pos="87.48" length="100.00" freq="25" file="detector_output.xml"/>
    <laneAreaDetector id="det_-1069183303_0" lane="-1069183303_0" pos="0.00" length="20.77" freq="25" file="detector_output.xml"/>
    <laneAreaDetector id="det_-1069584914_0" lane="-1069584914_0" pos="0.00" length="50.61" freq="25" file="detector_output.xml"/>
    <laneAreaDetector id="det_-1069584920_0" lane="-1069584920_0" pos="0.00" length="69.18" freq="25" file="detector_output.xml"/>
    <laneAreaDetector id="det_-1069584922_0" lane="-1069584922_0" pos="0.00" length="49.60" freq="25" file="detector_output.xml"/>
    <laneAreaDetector id="det_-1069584934_0" lane="-1069584934_0" pos="0.00" length="2.58" freq="25" file="detector_output.xml"/>
    <laneAreaDetector id="det_-1069584937#0_0" lane="-1069584937#0_0" pos="7.63" length="100.00" freq="25" file="detector_output.xml"/>
    <laneAreaDetector id="det_-1069584937#1_0" lane="-1069584937#1_0" pos="0.00" length="17.87" freq="25" file="detector_output.xml"/>
    <laneAreaDetector id="det_-1069612281_0" lane="-1069612281_0" pos="0.00" length="84.21" freq="25" file="detector_output.xml"/>
    <laneAreaDetector id="det_-1069612282#1_0" lane="-1069612282#1_0" pos="0.00" length="81.16" freq="25" file="detector_output.xml"/>
    <laneAreaDetector id="det_-1069612282#4_0" lane="-1069612282#4_0" pos="0.00" length="59.91" freq="25" file="detector_output.xml"/>
    <laneAreaDetector id="det_-1069612282#7_0" lane="-1069612282#7_0" pos="0.00" length="54.44" freq="25" file="detector_output.xml"/>
    <laneAreaDetector id="det_-1070592890#0_0" lane="-1070592890#0_0" pos="590.09" length="100.00" freq="25" file="detector_output.xml"/>
    <laneAreaDetector id="det_-1070592890#1_0" lane="-1070592890#1_0" pos="74.95" length="100.00" freq="25" file="detector_output.xml"/>
    <laneAreaDetector id="det_-1070592890#2_0" lane="-1070592890#2_0" pos="0.00" length="88.93" freq="25" file="detector_output.xml"/>
    <laneAreaDetector id="det_-1070592914_0" lane="-1070592914_0" pos="38.65" length="100.00" freq="25" file="detector_output.xml"/>
    <laneAreaDetector id="det_-1070592920_0" lane="-1070592920_0" pos="0.00" length="12.39" freq="25" file="detector_output.xml"/>
    <laneAreaDetector id="det_-1070592955#0_0" lane="-1070592955#0_0" pos="0.00" length="4.83" freq="25" file="detector_output.xml"/>
    <laneAreaDetector id="det_-1070592955#1_0" lane="-1070592955#1_0" pos="0.00" length="41.29" freq="25" file="detector_output.xml"/>
    <laneAreaDetector id="det_-1070592955#2_0" lane="-1070592955#2_0" pos="0.00" length="5.47" freq="25" file="detector_output.xml"/>
    <laneAreaDetector id="det_-1071282021#0_0" lane="-1071282021#0_0" pos="80.93" length="100.00" freq="25" file="detector_output.xml"/>
    <laneAreaDetector id="det_-1071282021#1_0" lane="-1071282021#1_0" pos="0.00" length="13.37" freq="25" file="detector_output.xml"/>
    <laneAreaDetector id="det_-1071282021#10_0" lane="-1071282021#10_0" pos="0.00" length="35.11" freq="25" file="detector_output.xml"/>
    <laneAreaDetector id="det_-1071282021#2_0" lane="-1071282021#2_0" pos="0.00" length="63.66" freq="25" file="detector_output.xml"/>
    <laneAreaDetector id="det_-1071282021#3_0" lane="-1071282021#3_0" pos="132.67" length="100.00" freq="25" file="detector_output.xml"/>
    <laneAreaDetector id="det_-1071282021#5_0" lane="-1071282021#5_0" pos="0.00" length="80.71" freq="25" file="detector_output.xml"/>
    <laneAreaDetector id="det_-1071282021#6_0" lane="-1071282021#6_0" pos="0.00" length="73.70" freq="25" file="detector_output.xml"/>
    <laneAreaDetector id="det_-1071282021#7_0" lane="-1071282021#7_0" pos="0.00" length="14.91" freq="25" file="detector_output.xml"/>
    <laneAreaDetector id="det_-1071282021#8_0" lane="-1071282021#8_0" pos="0.00" length="83.73" freq="25" file="detector_output.xml"/>
    <laneAreaDetector id="det_-1071282021#9_0" lane="-1071282021#9_0" pos="11.37" length="100.00" freq="25" file="detector_output.xml"/>
    <laneAreaDetector id="det_-1071282026#0_0" lane="-1071282026#0_0" pos="0.00" length="44.41" freq="25" file="detector_output.xml"/>
    <laneAreaDetector id="det_-1071282026#1_0" lane="-1071282026#1_0" pos="0.00" length="14.75" freq="25" file="detector_output.xml"/>
    <laneAreaDetector id="det_-1071282026#2_0" lane="-1071282026#2_0" pos="0.00" length="51.70" freq="25" file="detector_output.xml"/>
    <laneAreaDetector id="det_-1071282026#3_0" lane="-1071282026#3_0" pos="0.00" length="5.12" freq="25" file="detector_output.xml"/>
    <laneAreaDetector id="det_-1071282026#4_0" lane="-1071282026#4_0" pos="0.00" length="44.86" freq="25" file="detector_output.xml"/>
    <laneAreaDetector id="det_-1071282050#0_0" lane="-1071282050#0_0" pos="1.54" length="100.00" freq="25" file="detector_output.xml"/>
    <laneAreaDetector id="det_-1071343747_0" lane="-1071343747_0" pos="0.00" length="13.73" freq="25" file="detector_output.xml"/>
    <laneAreaDetector id="det_-1071561140_0" lane="-1071561140_0" pos="375.77" length="100.00" freq="25" file="detector_output.xml"/>
    <laneAreaDetector id="det_-1073045314#0_0" lane="-1073045314#0_0" pos="0.00" length="0.34" freq="25" file="detector_output.xml"/>
    <laneAreaDetector id="det_-1073045315#0_0" lane="-1073045315#0_0" pos="0.00" length="12.01" freq="25" file="detector_output.xml"/>
    <laneAreaDetector id="det_-1073045328_0" lane="-1073045328_0" pos="12.84" length="100.00" freq="25" file="detector_output.xml"/>
    <laneAreaDetector id="det_-1073045329#0_0" lane="-1073045329#0_0" pos="0.00" length="57.85" freq="25" file="detector_output.xml"/>
    <laneAreaDetector id="det_-1073045329#1_0" lane="-1073045329#1_0" pos="0.00" length="16.15" freq="25" file="detector_output.xml"/>
    <laneAreaDetector id="det_-1073045336#0_0" lane="-1073045336#0_0" pos="58.10" length="100.00" freq="25" file="detector_output.xml"/>
    <laneAreaDetector id="det_-1073045336#1_0" lane="-1073045336#1_0" pos="0.00" length="52.45" freq="25" file="detector_output.xml"/>
    <laneAreaDetector id="det_-1073045336#2_0" lane="-1073045336#2_0" pos="0.00" length="60.08" freq="25" file="detector_output.xml"/>
    <laneAreaDetector id="det_-1073045336#3_0" lane="-1073045336#3_0" pos="0.00" length="69.60" freq="25" file="detector_output.xml"/>
    <laneAreaDetector id="det_-1073045336#4_0" lane="-1073045336#4_0" pos="0.00" length="57.70" freq="25" file="detector_output.xml"/>
    <laneAreaDetector id="det_-1073045336#5_0" lane="-1073045336#5_0" pos="14.33" length="100.00" freq="25" file="detector_output.xml"/>
    <laneAreaDetector id="det_-1073045336#6_0" lane="-1073045336#6_0" pos="0.00" length="41.86" freq="25" file="detector_output.xml"/>
    <laneAreaDetector id="det_-1073045336#7_0" lane="-1073045336#7_0" pos="0.00" length="64.09" freq="25" file="detector_output.xml"/>
    <laneAreaDetector id="det_-1073045336#8_0" lane="-1073045336#8_0" pos="0.00" length="78.32" freq="25" file="detector_output.xml"/>
    <laneAreaDetector id="det_-1073045394#0_0" lane="-1073045394#0_0" pos="8.96" length="100.00" freq="25" file="detector_output.xml"/>
    <laneAreaDetector id="det_-1073045394#1_0" lane="-1073045394#1_0" pos="0.00" length="53.71" freq="25" file="detector_output.xml"/>
    <laneAreaDetector id="det_-1073045394#2_0" lane="-1073045394#2_0" pos="0.00" length="20.45" freq="25" file="detector_output.xml"/>
    <laneAreaDetector id="det_-1073045394#3_0" lane="-1073045394#3_0" pos="0.00" length="32.35" freq="25" file="detector_output.xml"/>
    <laneAreaDetector id="det_-1073045446#0_0" lane="-1073045446#0_0" pos="553.03" length="100.00" freq="25" file="detector_output.xml"/>
    <laneAreaDetector id="det_-1073045446#1_0" lane="-1073045446#1_0" pos="0.00" length="87.77" freq="25" file="detector_output.xml"/>
    <laneAreaDetector id="det_-1073045447#0_0" lane="-1073045447#0_0" pos="67.56" length="100.00" freq="25" file="detector_output.xml"/>
    <laneAreaDetector id="det_-1073045447#1_0" lane="-1073045447#1_0" pos="18.02" length="100.00" freq="25" file="detector_output.xml"/>
    <laneAreaDetector id="det_-1073045447#10_0" lane="-1073045447#10_0" pos="0.00" length="33.00" freq="25" file="detector_output.xml"/>
    <laneAreaDetector id="det_-1073045447#2_0" lane="-1073045447#2_0" pos="62.05" length="100.00" freq="25" file="detector_output.xml"/>
    <laneAreaDetector id="det_-1073045447#3_0" lane="-1073045447#3_0" pos="0.00" length="18.67" freq="25" file="detector_output.xml"/>
    <laneAreaDetector id="det_-1073045447#4_0" lane="-1073045447#4_0" pos="75.95" length="100.00" freq="25" file="detector_output.xml"/>
    <laneAreaDetector id="det_-1073045447#5_0" lane="-1073045447#5_0" pos="0.00" length="93.50" freq="25" file="detector_output.xml"/>
    <laneAreaDetector id="det_-1073045447#6_0" lane="-1073045447#6_0" pos="0.00" length="23.70" freq="25" file="detector_output.xml"/>
    <laneAreaDetector id="det_-1073045447#7_0" lane="-1073045447#7_0" pos="0.00" length="16.98" freq="25" file="detector_output.xml"/>
    <laneAreaDetector id="det_-1073045447#8_0" lane="-1073045447#8_0" pos="0.00" length="84.44" freq="25" file="detector_output.xml"/>
    <laneAreaDetector id="det_-1073045447#9_0" lane="-1073045447#9_0" pos="106.69" length="100.00" freq="25" file="detector_output.xml"/>