<?xml version="1.0" encoding="UTF-8"?>

<!-- generated on 2025-06-27 15:11:27.682086 by randomTrips.py v1_19_0+0000-baa66a0f364
<configuration>
    <net-file value="new_osm.net.xml"/>
    <route-file value="routes_8000.rou.xml"/>
    <binomial value="8000"/>
</configuration>
-->

<routes xmlns:xsi="http://www.w3.org/2001/XMLSchema-instance" xsi:noNamespaceSchemaLocation="http://sumo.dlr.de/xsd/routes_file.xsd">
    <trip id="0" depart="0.00" from="50159999#0" to="51272319#5"/>
    <trip id="1" depart="1.00" from="-62080925#0" to="75258707#11"/>
    <trip id="2" depart="1.00" from="252494929#0" to="-23759951#7"/>
    <trip id="3" depart="1.00" from="160307897#7" to="335233760#1"/>
    <trip id="4" depart="1.00" from="319203388#15" to="732411488"/>
    <trip id="5" depart="2.00" from="-51354476#1" to="159119081#15"/>
    <trip id="6" depart="5.00" from="198352419" to="236367442#0"/>
    <trip id="7" depart="5.00" from="-73567623#7" to="-330305598#12"/>
    <trip id="8" depart="5.00" from="77998955#3" to="-365633482#3"/>
    <trip id="9" depart="6.00" from="-1257895203#4" to="599378885#0"/>
    <trip id="10" depart="6.00" from="381892606" to="72450928#6"/>
    <trip id="11" depart="7.00" from="101898714#1" to="242343327#0"/>
    <trip id="12" depart="8.00" from="-98724201#6" to="374332383"/>
    <trip id="13" depart="9.00" from="324294428#8" to="160125697#1"/>
    <trip id="14" depart="11.00" from="264427426#1" to="311438968#1"/>
    <trip id="15" depart="11.00" from="-72451526#8" to="158716065#2"/>
    <trip id="16" depart="13.00" from="338929664" to="51268714#1"/>
    <trip id="17" depart="13.00" from="531922634#0" to="-435092157#1"/>
    <trip id="18" depart="16.00" from="-244450505#11" to="330462869#1"/>
    <trip id="19" depart="17.00" from="73420220#4" to="23766386#5"/>
    <trip id="20" depart="17.00" from="244421769#3" to="505644564#4"/>
    <trip id="21" depart="23.00" from="-73750267#0" to="-158805135"/>
    <trip id="22" depart="23.00" from="198352413" to="310849380#3"/>
    <trip id="23" depart="24.00" from="158937218#2" to="90590336#14"/>
    <trip id="24" depart="25.00" from="669268501#1" to="531927618#1"/>
    <trip id="25" depart="26.00" from="365633482#5" to="374332388"/>
    <trip id="26" depart="27.00" from="-374332369#2" to="-183981052#1"/>
    <trip id="27" depart="31.00" from="317034787#1" to="442788101#14"/>
    <trip id="28" depart="32.00" from="-557564466#5" to="-420457753#3"/>
    <trip id="29" depart="34.00" from="26793780" to="26791237#1"/>
    <trip id="30" depart="34.00" from="506599433#2" to="-316690652#0"/>
    <trip id="31" depart="34.00" from="1238557270#0" to="238710697#9"/>
    <trip id="32" depart="36.00" from="241536947#2" to="-330466890#1"/>
    <trip id="33" depart="36.00" from="-266057209#1" to="334835604#5"/>
    <trip id="34" depart="37.00" from="-378661996#0" to="183981919#1"/>
    <trip id="35" depart="37.00" from="-158624871#6" to="73234527#0"/>
    <trip id="36" depart="37.00" from="-159119367#1" to="206134515#2"/>
    <trip id="37" depart="38.00" from="1241641161" to="335233764#4-AddedOnRampEdge"/>
    <trip id="38" depart="38.00" from="-449379868" to="-592820248#2"/>
    <trip id="39" depart="39.00" from="287217262" to="319203387#21"/>
    <trip id="40" depart="40.00" from="307023766#0" to="-384232893#3"/>
    <trip id="41" depart="40.00" from="-51268653" to="242425478"/>
    <trip id="42" depart="43.00" from="51354478#3" to="-244450534#9"/>
    <trip id="43" depart="44.00" from="-72581708#5" to="310677990#24"/>
    <trip id="44" depart="45.00" from="-26788400#2" to="-158803689#1"/>
    <trip id="45" depart="45.00" from="-79190859#8" to="158937218#1"/>
    <trip id="46" depart="46.00" from="208601069#0" to="-442788103#17"/>
    <trip id="47" depart="48.00" from="1079011023#0" to="98724201#3"/>
    <trip id="48" depart="48.00" from="172358568#0" to="316842893#24"/>
    <trip id="49" depart="49.00" from="-85470124" to="-79190859#19"/>
    <trip id="50" depart="49.00" from="326352594#1" to="-330460074#0"/>
    <trip id="51" depart="51.00" from="23766392#16" to="-50159999#0"/>
    <trip id="52" depart="52.00" from="198352408" to="288522784#14"/>
    <trip id="53" depart="53.00" from="-98724129#0" to="-242343466#0"/>
    <trip id="54" depart="53.00" from="-72581708#17" to="244247466#2"/>
    <trip id="55" depart="53.00" from="287735316" to="79211500#1"/>
    <trip id="56" depart="55.00" from="51812996#7" to="23759366#1"/>
    <trip id="57" depart="56.00" from="244421761#1" to="-203384054#0"/>
    <trip id="58" depart="57.00" from="435317443" to="-474735872#1"/>
    <trip id="59" depart="58.00" from="377013913" to="-209697431#2"/>
    <trip id="60" depart="59.00" from="-203384059" to="1076843363#0"/>
    <trip id="61" depart="59.00" from="-50914322" to="172965522"/>
    <trip id="62" depart="59.00" from="26787078#2" to="1076843372#2"/>
    <trip id="63" depart="61.00" from="330361185#1" to="203384056#0"/>
    <trip id="64" depart="62.00" from="77998953" to="238710697#4"/>
    <trip id="65" depart="62.00" from="-310677984#5" to="203321531#1"/>
    <trip id="66" depart="63.00" from="183865666#0" to="-51268678#9"/>
    <trip id="67" depart="63.00" from="203384065#2" to="-27864364#6"/>
    <trip id="68" depart="63.00" from="266057210" to="-72576575#7"/>
    <trip id="69" depart="63.00" from="-72450928#3" to="327528743#11"/>
    <trip id="70" depart="65.00" from="241811770#1" to="238710698#10"/>
    <trip id="71" depart="68.00" from="-110526118#10" to="-431916538#0"/>
    <trip id="72" depart="69.00" from="-158803686#4" to="377740857#0"/>
    <trip id="73" depart="73.00" from="160053393#0" to="245270258#1"/>
    <trip id="74" depart="73.00" from="-51354542#3" to="324294428#1"/>
    <trip id="75" depart="73.00" from="444597031#0" to="316690655#9"/>
    <trip id="76" depart="73.00" from="101896832#4" to="183352829#4"/>
    <trip id="77" depart="74.00" from="-27864364#9" to="209697430#6"/>
    <trip id="78" depart="76.00" from="-51272310#0" to="-903121039#0"/>
    <trip id="79" depart="77.00" from="188722640#1" to="779271005#0"/>
    <trip id="80" depart="77.00" from="377170286" to="-51268653"/>
    <trip id="81" depart="77.00" from="-640946109#2" to="-51420507#9"/>
    <trip id="82" depart="78.00" from="244618585#2" to="-592820248#7"/>
    <trip id="83" depart="78.00" from="173001719#3" to="-374332362#4"/>
    <trip id="84" depart="83.00" from="310677990#18" to="26787078#8"/>
    <trip id="85" depart="83.00" from="236377169#0" to="-1257895197#0"/>
    <trip id="86" depart="84.00" from="248976980#0" to="51813043#7"/>
    <trip id="87" depart="84.00" from="-188702831#4" to="384232893#24"/>
    <trip id="88" depart="87.00" from="330305597#0" to="1018687330#0"/>
    <trip id="89" depart="88.00" from="506316030#5" to="288354567#8"/>
    <trip id="90" depart="88.00" from="172356275#2" to="-244421750#2"/>
    <trip id="91" depart="88.00" from="-258599307#0" to="-51420507#9"/>
    <trip id="92" depart="88.00" from="-51268658#4" to="-50914322"/>
    <trip id="93" depart="90.00" from="330331427#3" to="-442056450"/>
    <trip id="94" depart="93.00" from="-683686532#1" to="330229637#2"/>
    <trip id="95" depart="94.00" from="75045166#0" to="330466874#1"/>
    <trip id="96" depart="95.00" from="288522784#1" to="-26793529#0"/>
    <trip id="97" depart="99.00" from="244024548#0" to="-189781438#4"/>
    <trip id="98" depart="99.00" from="26787956#10" to="-593840519#9"/>
    <trip id="99" depart="99.00" from="314369324#1" to="-203384065#4"/>
    <trip id="100" depart="100.00" from="62080941#0" to="377574283#2"/>
    <trip id="101" depart="100.00" from="28555661#3" to="-444597031#0"/>
    <trip id="102" depart="101.00" from="-330461417#1" to="51268695#8"/>
    <trip id="103" depart="101.00" from="266057209#3" to="75844230#0"/>
    <trip id="104" depart="102.00" from="75258707#1" to="244450530#1"/>
    <trip id="105" depart="104.00" from="311139734#4" to="158982855#4"/>
    <trip id="106" depart="104.00" from="203321533#3" to="-242317221#5"/>
    <trip id="107" depart="104.00" from="330466875#2" to="158758835#2"/>
    <trip id="108" depart="105.00" from="-79190859#29" to="237174565#0"/>
    <trip id="109" depart="105.00" from="-158804988" to="-90590314#2"/>
    <trip id="110" depart="107.00" from="244450531#2" to="384232893#31"/>
    <trip id="111" depart="108.00" from="-478048074#1" to="243903727#0"/>
    <trip id="112" depart="108.00" from="-420466835#0" to="-52907071#2"/>
    <trip id="113" depart="109.00" from="-236523170#0" to="252494932#4"/>
    <trip id="114" depart="111.00" from="-203384045#1" to="26787078#5"/>
    <trip id="115" depart="112.00" from="51268671#2" to="48776363#1"/>
    <trip id="116" depart="116.00" from="62080918#0" to="548040805#2"/>
    <trip id="117" depart="117.00" from="317319502#4" to="-27864364#4"/>
    <trip id="118" depart="117.00" from="-330466883#4" to="243891935#1"/>
    <trip id="119" depart="118.00" from="-101898897#3" to="244246719#6"/>
    <trip id="120" depart="120.00" from="-158807857#0" to="-330466877#1"/>
    <trip id="121" depart="121.00" from="62080970#5" to="51813041"/>
    <trip id="122" depart="124.00" from="-317034787#3" to="-426300425#4"/>
    <trip id="123" depart="125.00" from="-101896832#4" to="-208601079#0"/>
    <trip id="124" depart="125.00" from="75829490#0" to="-75844260#0"/>
    <trip id="125" depart="125.00" from="478029743" to="-984753540#1"/>
    <trip id="126" depart="126.00" from="630009159#0" to="-236367442#3"/>
    <trip id="127" depart="126.00" from="203315545#1" to="244450505#2"/>
    <trip id="128" depart="127.00" from="-330461423#7" to="264410143#4"/>
    <trip id="129" depart="127.00" from="-310677984#2" to="160068864#6"/>
    <trip id="130" depart="128.00" from="-26793880#0" to="-51420546#9"/>
    <trip id="131" depart="128.00" from="-375408687#2" to="189781449#4"/>
    <trip id="132" depart="129.00" from="311576783#9" to="73420222#3"/>
    <trip id="133" depart="130.00" from="26787078#4" to="26789149#14"/>
    <trip id="134" depart="130.00" from="-158805134#0" to="-172957336"/>
    <trip id="135" depart="131.00" from="-236375709#1" to="1076843336"/>
    <trip id="136" depart="132.00" from="72704591#0" to="183840100#25"/>
    <trip id="137" depart="134.00" from="-51272311#0" to="158758835#3"/>
    <trip id="138" depart="135.00" from="920886977" to="101898714#2"/>
    <trip id="139" depart="135.00" from="23766960#6" to="335233773#3"/>
    <trip id="140" depart="136.00" from="72452250#1" to="-90590342#1"/>
    <trip id="141" depart="137.00" from="-384232893#7" to="474788300#0"/>
    <trip id="142" depart="137.00" from="330466881#1" to="-73420239#5"/>
    <trip id="143" depart="137.00" from="75844203#7" to="407206572#4"/>
    <trip id="144" depart="138.00" from="442788101#1" to="-28017818#1"/>
    <trip id="145" depart="138.00" from="183427531#1" to="-172954089#2"/>
    <trip id="146" depart="138.00" from="203384047#0" to="505644564#9"/>
    <trip id="147" depart="139.00" from="368877191#10" to="407206572#14"/>
    <trip id="148" depart="140.00" from="-173001718#3" to="474733650"/>
    <trip id="149" depart="141.00" from="184723339#1" to="375408687#2"/>
    <trip id="150" depart="141.00" from="-311860248#7" to="-73567664#1"/>
    <trip id="151" depart="142.00" from="-26787956#11" to="243881880#1"/>
    <trip id="152" depart="143.00" from="435317443" to="73567664#1"/>
    <trip id="153" depart="146.00" from="-732390617#12" to="-23766392#18"/>
    <trip id="154" depart="148.00" from="254090130#5" to="-26787956#10"/>
    <trip id="155" depart="152.00" from="-158796986#0" to="23766392#17"/>
    <trip id="156" depart="152.00" from="-26787078#8" to="326352586#5"/>
    <trip id="157" depart="153.00" from="-110526118#15" to="-245270258#1"/>
    <trip id="158" depart="153.00" from="244450529#1" to="-184723337#1"/>
    <trip id="159" depart="157.00" from="62080941#3" to="173012839#3"/>
    <trip id="160" depart="159.00" from="158978976#6" to="-50160049#1"/>
    <trip id="161" depart="159.00" from="110526119#4" to="384232893#22"/>
    <trip id="162" depart="160.00" from="-242343488#2" to="378661995"/>
    <trip id="163" depart="161.00" from="98725120#3" to="77998954#2"/>
    <trip id="164" depart="161.00" from="-542034658#0" to="50914252#7"/>
    <trip id="165" depart="164.00" from="384232893#17" to="71324898#0"/>
    <trip id="166" depart="165.00" from="949910241#1" to="-159119367#2"/>
    <trip id="167" depart="165.00" from="-431916538#0" to="238689670#1"/>
    <trip id="168" depart="165.00" from="-73420239#8" to="1070996018"/>
    <trip id="169" depart="166.00" from="311576783#2" to="244421758#3"/>
    <trip id="170" depart="167.00" from="-330466883#7" to="316690655#10"/>
    <trip id="171" depart="167.00" from="158803686#0" to="-26787974#3"/>
    <trip id="172" depart="168.00" from="51272303#0" to="324294395#0"/>
    <trip id="173" depart="168.00" from="-172954073#1" to="476442145"/>
    <trip id="174" depart="169.00" from="-51812996#9" to="-557566168#10"/>
    <trip id="175" depart="171.00" from="286016696#9" to="-158758847#1"/>
    <trip id="176" depart="172.00" from="-71324231#1" to="206134511#1"/>
    <trip id="177" depart="174.00" from="449379867#0" to="-158803685#1"/>
    <trip id="178" depart="174.00" from="79190859#20" to="159118865#1"/>
    <trip id="179" depart="176.00" from="51354478#8" to="335233774#3"/>
    <trip id="180" depart="176.00" from="-172358516#6" to="384232893#19"/>
    <trip id="181" depart="177.00" from="338923676#10" to="103533006#9"/>
    <trip id="182" depart="178.00" from="158807853#1" to="506316028#2"/>
    <trip id="183" depart="178.00" from="-203578981#1" to="158964730#13"/>
    <trip id="184" depart="179.00" from="401628858#0" to="26791265#2"/>
    <trip id="185" depart="179.00" from="-71324898#2" to="449379852#1"/>
    <trip id="186" depart="179.00" from="-330331427#2" to="73420217#1"/>
    <trip id="187" depart="181.00" from="221195129#10" to="-287217262"/>
    <trip id="188" depart="183.00" from="244450531#14" to="317319496#4"/>
    <trip id="189" depart="183.00" from="73420220#5" to="90590314#0"/>
    <trip id="190" depart="186.00" from="23766844#6" to="690717155#0"/>
    <trip id="191" depart="188.00" from="-208601080#0" to="-183865668#4"/>
    <trip id="192" depart="189.00" from="78050807" to="-189161728#3"/>
    <trip id="193" depart="190.00" from="242343327#2" to="-144500731#3"/>
    <trip id="194" depart="190.00" from="244247462#8" to="62080954"/>
    <trip id="195" depart="192.00" from="-158758847#5" to="330461423#4"/>
    <trip id="196" depart="193.00" from="-172957019#0" to="384232893#18"/>
    <trip id="197" depart="196.00" from="630009161" to="244247462#8"/>
    <trip id="198" depart="196.00" from="-374332367#0" to="244450505#9"/>
    <trip id="199" depart="197.00" from="338923680#2" to="-101897574#7"/>
    <trip id="200" depart="198.00" from="72650901" to="72452250#4"/>
    <trip id="201" depart="199.00" from="48769258" to="-51272310#5"/>
    <trip id="202" depart="199.00" from="244454471#7" to="-1257895203#7"/>
    <trip id="203" depart="201.00" from="552341333" to="173012126#1"/>
    <trip id="204" depart="203.00" from="-75844203#7" to="159119081#13"/>
    <trip id="205" depart="206.00" from="208601074#1" to="-286016696#8"/>
    <trip id="206" depart="209.00" from="-206134506#0" to="-62080944"/>
    <trip id="207" depart="210.00" from="413955653#13" to="206968480"/>
    <trip id="208" depart="210.00" from="183837582#0" to="449395546#1"/>
    <trip id="209" depart="211.00" from="-49788417#1" to="23766844#5"/>
    <trip id="210" depart="212.00" from="236375710#1" to="206134511#5"/>
    <trip id="211" depart="212.00" from="207145277#1" to="26788518#1"/>
    <trip id="212" depart="213.00" from="-198352409#1" to="-75844318#3"/>
    <trip id="213" depart="213.00" from="-75829509#3" to="158803685#2"/>
    <trip id="214" depart="215.00" from="197557008#11" to="-403494981#7"/>
    <trip id="215" depart="216.00" from="330460078#0" to="243901670#1"/>
    <trip id="216" depart="218.00" from="23760625#15" to="209514228#3"/>
    <trip id="217" depart="221.00" from="-330461422#3" to="51268678#32"/>
    <trip id="218" depart="222.00" from="442481619" to="-51268678#12"/>
    <trip id="219" depart="223.00" from="442788100#1" to="-172957019#1"/>
    <trip id="220" depart="223.00" from="266063760#1" to="-669268498#1"/>
    <trip id="221" depart="224.00" from="404548335#1" to="449379870#0"/>
    <trip id="222" depart="224.00" from="203384065#2" to="-762002987#1"/>
    <trip id="223" depart="224.00" from="-183865668#1" to="-209700855"/>
    <trip id="224" depart="225.00" from="-442788101#3" to="244450505#12"/>
    <trip id="225" depart="227.00" from="316842893#24" to="62080955#5"/>
    <trip id="226" depart="230.00" from="158758843#2" to="317833366#2"/>
    <trip id="227" depart="230.00" from="-203578978#0" to="238689669#3"/>
    <trip id="228" depart="231.00" from="324294403#0" to="110526118#10"/>
    <trip id="229" depart="232.00" from="183840101#1" to="1079011021"/>
    <trip id="230" depart="232.00" from="732390617#10" to="51268670#1"/>
    <trip id="231" depart="232.00" from="330305601#1" to="-26788027#1"/>
    <trip id="232" depart="232.00" from="311576793#6" to="-188722645#0"/>
    <trip id="233" depart="233.00" from="435318497" to="-198352425#4"/>
    <trip id="234" depart="233.00" from="158978976#18" to="158978976#13"/>
    <trip id="235" depart="234.00" from="378661993#4" to="-241811783#4"/>
    <trip id="236" depart="235.00" from="330352839#0" to="-79190859#30"/>
    <trip id="237" depart="237.00" from="-1257895203#3" to="51272310#0"/>
    <trip id="238" depart="237.00" from="-110526118#16" to="700498243"/>
    <trip id="239" depart="238.00" from="377574284" to="158982857#1"/>
    <trip id="240" depart="241.00" from="188587032#15" to="-340667916#6"/>
    <trip id="241" depart="241.00" from="330305602#4" to="557563424#1"/>
    <trip id="242" depart="242.00" from="307023766#0" to="557563419#8"/>
    <trip id="243" depart="242.00" from="374332363" to="51354505#2"/>
    <trip id="244" depart="242.00" from="455440688#1" to="-420466833#0"/>
    <trip id="245" depart="245.00" from="1200900344#0" to="-79190859#18"/>
    <trip id="246" depart="245.00" from="317029286" to="23766844#4"/>
    <trip id="247" depart="246.00" from="51272316#5" to="198589896"/>
    <trip id="248" depart="250.00" from="-592820248#2" to="254456440"/>
    <trip id="249" depart="250.00" from="238710694#6" to="-183981054#6"/>
    <trip id="250" depart="251.00" from="640946109#0" to="474735872#1"/>
    <trip id="251" depart="252.00" from="-72704591#1" to="60443718#2"/>
    <trip id="252" depart="252.00" from="51272311#0" to="208601066#3"/>
    <trip id="253" depart="252.00" from="-23766386#9" to="51272319#3"/>
    <trip id="254" depart="254.00" from="-244450505#1" to="23766960#2"/>
    <trip id="255" depart="256.00" from="498435027#3" to="319203387#12"/>
    <trip id="256" depart="256.00" from="51813002" to="762049682#6"/>
    <trip id="257" depart="256.00" from="236375709#3" to="236375708#0"/>
    <trip id="258" depart="257.00" from="72704591#0" to="-158796979#1"/>
    <trip id="259" depart="259.00" from="-317029271#0" to="-73567623#17"/>
    <trip id="260" depart="259.00" from="-158937218#10" to="79190859#31"/>
    <trip id="261" depart="259.00" from="-72581700#2" to="334835604#5"/>
    <trip id="262" depart="261.00" from="-203384045#10" to="413955653#3"/>
    <trip id="263" depart="267.00" from="455440687#1" to="208601053"/>
    <trip id="264" depart="268.00" from="-255180005#2" to="-266063761#5"/>
    <trip id="265" depart="269.00" from="101893519#7" to="221195130"/>
    <trip id="266" depart="270.00" from="-103533006#11" to="77998955#10"/>
    <trip id="267" depart="275.00" from="330462870#1" to="-183840100#17"/>
    <trip id="268" depart="275.00" from="244421739#0" to="75829498#2"/>
    <trip id="269" depart="278.00" from="158805135" to="253564981#1"/>
    <trip id="270" depart="279.00" from="-172957263#3" to="-203384042#6"/>
    <trip id="271" depart="279.00" from="506599424#2" to="62080905#1"/>
    <trip id="272" depart="280.00" from="-23766392#17" to="-158804865#3"/>
    <trip id="273" depart="283.00" from="-203384041#8" to="-51354530"/>
    <trip id="274" depart="284.00" from="62080953#1" to="-330466892#2"/>
    <trip id="275" depart="284.00" from="103533006#10" to="-188702831#4"/>
    <trip id="276" depart="285.00" from="-62080939#6" to="-62080912#2"/>
    <trip id="277" depart="286.00" from="-110526118#2" to="51272317#6"/>
    <trip id="278" depart="286.00" from="-374332379#1" to="-203384041#4"/>
    <trip id="279" depart="287.00" from="243908724#0" to="-330466875#1"/>
    <trip id="280" depart="288.00" from="51268678#31" to="-158803686#3"/>
    <trip id="281" depart="288.00" from="75258740#5" to="159119651"/>
    <trip id="282" depart="289.00" from="101897574#8" to="-188702830#1"/>
    <trip id="283" depart="290.00" from="-72450928#0" to="75096429#0"/>
    <trip id="284" depart="290.00" from="506599431#0" to="160435110"/>
    <trip id="285" depart="292.00" from="911605211#2" to="-243383414#1"/>
    <trip id="286" depart="292.00" from="-73420233#0" to="330361183#3"/>
    <trip id="287" depart="294.00" from="203384054#1" to="269542356#0"/>
    <trip id="288" depart="294.00" from="374332390#0" to="51354536#1"/>
    <trip id="289" depart="295.00" from="237614749" to="-381892612#2"/>
    <trip id="290" depart="295.00" from="374332380#1" to="911605212#2"/>
    <trip id="291" depart="297.00" from="431916538#1" to="51813011#2"/>
    <trip id="292" depart="298.00" from="-51821784#0" to="1079011027#0"/>
    <trip id="293" depart="298.00" from="377013908#1" to="244421755#1-AddedOffRampEdge"/>
    <trip id="294" depart="299.00" from="-23760430#10" to="506599431#0"/>
    <trip id="295" depart="300.00" from="-310677983#0" to="472093897#0"/>
    <trip id="296" depart="302.00" from="23766960#1" to="316842893#22"/>
    <trip id="297" depart="303.00" from="-905020803" to="51812991#1"/>
    <trip id="298" depart="304.00" from="75717910#1" to="-51268681#1"/>
    <trip id="299" depart="305.00" from="264410144" to="592820248#3"/>
    <trip id="300" depart="306.00" from="72576575#11" to="311576793#18"/>
    <trip id="301" depart="306.00" from="-51268678#38" to="-23766392#16"/>
    <trip id="302" depart="306.00" from="445105368#1" to="-51268678#4"/>
    <trip id="303" depart="308.00" from="51813018#2" to="172954089#6"/>
    <trip id="304" depart="309.00" from="557566166#7" to="159119253"/>
    <trip id="305" depart="310.00" from="-236522008#1" to="-687882329#1"/>
    <trip id="306" depart="312.00" from="51813043#5" to="317319496#2"/>
    <trip id="307" depart="314.00" from="206134505#0" to="449379874#10"/>
    <trip id="308" depart="314.00" from="-384232893#29" to="-330305602#4"/>
    <trip id="309" depart="315.00" from="1018687329#2" to="244618587#1"/>
    <trip id="310" depart="316.00" from="330305598#10" to="189781444#6"/>
    <trip id="311" depart="317.00" from="381892611#0" to="319203388#11"/>
    <trip id="312" depart="322.00" from="-75829486#2" to="909145683#1"/>
    <trip id="313" depart="322.00" from="-51268711#1" to="49788393#0"/>
    <trip id="314" depart="325.00" from="-324294428#9" to="-203384045#3"/>
    <trip id="315" depart="326.00" from="26788027#0" to="866318718#2"/>
    <trip id="316" depart="326.00" from="158716064#2" to="445105368#2"/>
    <trip id="317" depart="326.00" from="110526118#12" to="-316842893#24"/>
    <trip id="318" depart="328.00" from="442788103#8" to="540005573#1"/>
    <trip id="319" depart="329.00" from="360217589" to="304591777#3"/>
    <trip id="320" depart="331.00" from="206134515#1" to="50914252#1"/>
    <trip id="321" depart="331.00" from="-1238557272#1" to="203315545#0"/>
    <trip id="322" depart="333.00" from="-23766386#9" to="557566166#1"/>
    <trip id="323" depart="333.00" from="-374332367#2" to="-172358516#2"/>
    <trip id="324" depart="333.00" from="203384063#2" to="-51268702#5"/>
    <trip id="325" depart="333.00" from="474733651#2" to="254456283"/>
    <trip id="326" depart="333.00" from="203384065#1" to="-50160021#2"/>
    <trip id="327" depart="334.00" from="208601085#1" to="374332383"/>
    <trip id="328" depart="334.00" from="-242343466#0" to="242343466#5"/>
    <trip id="329" depart="334.00" from="-452835760#1" to="-241811776#1"/>
    <trip id="330" depart="334.00" from="160053393#2" to="183705921#2"/>
    <trip id="331" depart="335.00" from="-51813035" to="769378425#1"/>
    <trip id="332" depart="336.00" from="505644564#11" to="-330466890#1"/>
    <trip id="333" depart="337.00" from="-317029271#0" to="-51420507#2"/>
    <trip id="334" depart="337.00" from="-98726042#3" to="-60443722#9"/>
    <trip id="335" depart="339.00" from="98725120#1" to="172358516#3"/>
    <trip id="336" depart="339.00" from="158716060#1" to="335233774#2"/>
    <trip id="337" depart="342.00" from="75717910#17" to="-206134505#1"/>
    <trip id="338" depart="343.00" from="-172957263#3" to="101894851#14"/>
    <trip id="339" depart="345.00" from="920886977" to="557563419#2"/>
    <trip id="340" depart="347.00" from="173030662#1" to="-183866724#1"/>
    <trip id="341" depart="347.00" from="49153824#8" to="311359937#18"/>
    <trip id="342" depart="350.00" from="-203315548#1" to="435091466#0"/>
    <trip id="343" depart="350.00" from="330327012#3" to="-254456440"/>
    <trip id="344" depart="351.00" from="-203384045#13" to="51354509"/>
    <trip id="345" depart="351.00" from="335233773#2" to="32427587#0"/>
    <trip id="346" depart="357.00" from="506316030#5" to="-242343326#0"/>
    <trip id="347" depart="357.00" from="-51272309#1" to="-60443729#1"/>
    <trip id="348" depart="357.00" from="173001717#5" to="311576779#1"/>
    <trip id="349" depart="358.00" from="317833373#1" to="-330331427#3"/>
    <trip id="350" depart="358.00" from="-208601065#1" to="208601088#2"/>
    <trip id="351" depart="359.00" from="209696247#0" to="51268678#23"/>
    <trip id="352" depart="360.00" from="449379869#0" to="110526119#5"/>
    <trip id="353" depart="360.00" from="-203384057#1" to="-330466889#1"/>
    <trip id="354" depart="362.00" from="77998955#10" to="494997377#1"/>
    <trip id="355" depart="363.00" from="-79190859#3" to="330461417#8"/>
    <trip id="356" depart="363.00" from="-26788496#1" to="442788101#11"/>
    <trip id="357" depart="364.00" from="27864364#7" to="-475037306#4"/>
    <trip id="358" depart="364.00" from="-79190859#8" to="77112848#0"/>
    <trip id="359" depart="364.00" from="475421741#2" to="48769253"/>
    <trip id="360" depart="365.00" from="29174276#0" to="196959643"/>
    <trip id="361" depart="366.00" from="183840100#21" to="-173939208#2"/>
    <trip id="362" depart="367.00" from="-640946110#1" to="23766844#0"/>
    <trip id="363" depart="368.00" from="-183865668#1" to="110526118#2"/>
    <trip id="364" depart="368.00" from="172358514#1" to="311860248#6"/>
    <trip id="365" depart="369.00" from="60443722#5" to="-101898899#1"/>
    <trip id="366" depart="371.00" from="779271005#0" to="-209514228#1"/>
    <trip id="367" depart="372.00" from="-26793886#5" to="-51268678#17"/>
    <trip id="368" depart="373.00" from="330461420#4" to="208601069#1"/>
    <trip id="369" depart="373.00" from="158758843#2" to="377740859#1"/>
    <trip id="370" depart="374.00" from="317032469" to="-330466878#14"/>
    <trip id="371" depart="374.00" from="-189781450#1" to="-241811774#4"/>
    <trip id="372" depart="376.00" from="-51420507#2" to="-1074753409#0"/>
    <trip id="373" depart="378.00" from="206948791#2" to="506599429#3"/>
    <trip id="374" depart="378.00" from="-442788103#0" to="-103534039#2"/>
    <trip id="375" depart="379.00" from="158803686#5" to="-198352415"/>
    <trip id="376" depart="381.00" from="452116335#0" to="920886981"/>
    <trip id="377" depart="382.00" from="254456683" to="593840519#10"/>
    <trip id="378" depart="385.00" from="287735319#1" to="62080970#6"/>
    <trip id="379" depart="385.00" from="286016696#4" to="-51812996#7"/>
    <trip id="380" depart="385.00" from="51354528#2" to="244454471#19"/>
    <trip id="381" depart="386.00" from="158917944#1" to="330466878#5"/>
    <trip id="382" depart="388.00" from="253564981#4" to="-158807850#2"/>
    <trip id="383" depart="390.00" from="26788327#0" to="-203384041#3"/>
    <trip id="384" depart="394.00" from="-51268679#1" to="27864364#10"/>
    <trip id="385" depart="394.00" from="-26791235" to="-172954072#2"/>
    <trip id="386" depart="394.00" from="557553455#0" to="244618587#2"/>
    <trip id="387" depart="395.00" from="51420576#0" to="-327528743#8"/>
    <trip id="388" depart="395.00" from="-236522071#0" to="244421750#1"/>
    <trip id="389" depart="396.00" from="-79211520#1" to="-462770575#0"/>
    <trip id="390" depart="397.00" from="-330460072#2" to="189005460#2"/>
    <trip id="391" depart="399.00" from="242430205#7" to="-378661996#0"/>
    <trip id="392" depart="400.00" from="317029271#1" to="160307899#2"/>
    <trip id="393" depart="401.00" from="1188237787#1" to="264484759#5"/>
    <trip id="394" depart="403.00" from="158758848#5" to="-203384054#1"/>
    <trip id="395" depart="404.00" from="449379853#5" to="-172358516#7"/>
    <trip id="396" depart="405.00" from="291325260#1" to="-158805132#1"/>
    <trip id="397" depart="405.00" from="73420239#8" to="-330746960#3"/>
    <trip id="398" depart="408.00" from="311359937#10" to="-330466891#3"/>
    <trip id="399" depart="408.00" from="158917944#1" to="-203384057#2"/>
    <trip id="400" depart="408.00" from="-442788101#12" to="243901667#5"/>
    <trip id="401" depart="410.00" from="-236378103#2" to="242317221#1"/>
    <trip id="402" depart="410.00" from="244450530#2" to="158624871#7"/>
    <trip id="403" depart="410.00" from="-75258721#4" to="260060672#0"/>
    <trip id="404" depart="411.00" from="-79190859#23" to="101893519#4"/>
    <trip id="405" depart="413.00" from="72581708#16" to="206992616"/>
    <trip id="406" depart="413.00" from="-60443722#2" to="-203384042#0"/>